%chk=b.chk
%nprocshared=28 
%mem=48gb 
# 6-31g(d) m062x g09default scf=(xqc,maxcycle=64) force  guess=read   nosymm

 Title Card 

0 3
6  1.40502203  0.48796079  -0.48581503
6  1.42277569  -0.49543476  0.56726699
6  2.63392022  -0.96596791  1.02256640
6  3.84694903  -0.49336478  0.50047777
6  3.81566669  0.48965390  -0.57424755
6  2.58375732  0.96246967  -1.02535822
1  2.65098365  -1.73831732  1.78580972
1  2.55862489  1.72712033  -1.79645260
6  4.99946245  0.96795041  -1.19261852
7  5.94956670  1.37116157  -1.72808375
6  5.06976671  -0.98000584  1.02426046
7  6.06327695  -1.38938059  1.46991232
6  -0.32780454  2.24891034  -0.27647658
6  -0.87354963  0.48048257  -1.54239202
6  0.36910198  3.16639432  0.52391176
6  -1.68518701  2.43839480  -0.65432154
6  -0.83090039  -0.72232252  -2.24401779
6  -2.03721607  1.28279792  -1.47260828
6  -0.32883316  4.28834021  0.94927758
1  1.40691112  2.99341229  0.78685811
6  -2.35751235  3.56346658  -0.21422554
6  -2.00670922  -1.12522846  -2.88571857
1  0.08372292  -1.29977512  -2.30201844
6  -3.18105346  0.87552496  -2.13191531
6  -1.66933264  4.48333021  0.58998476
1  0.17011095  5.02583232  1.56883516
1  -3.39829565  3.73227610  -0.47231220
6  -3.15495451  -0.33926499  -2.84065324
1  -2.01718440  -2.06163527  -3.43262739
1  -4.08451874  1.47731534  -2.11010584
1  -2.18822317  5.36832301  0.94344237
1  -4.04560770  -0.66143691  -3.36904169
6  -0.87007790  -0.49081064  1.61021067
6  -0.30207410  -2.26039781  0.35039253
6  -0.85718785  0.69457661  2.34123655
6  -2.04095483  -1.26831063  1.46878029
6  0.39203988  -3.19088332  -0.43521350
6  -1.67949551  -2.41203479  0.65286212
6  -2.05387487  1.09614637  2.93311136
1  0.05939133  1.26156586  2.46298329
6  -3.21828981  -0.85838652  2.08811527
6  -0.32301166  -4.27639430  -0.91682814
1  1.44875822  -3.05753741  -0.64247694
6  -2.37419767  -3.50999911  0.15147846
6  -3.21811011  0.32873202  2.81832584
1  -2.07379617  2.01495633  3.51030167
1  -4.11889186  -1.46127348  2.01234199
6  -1.69088030  -4.43527171  -0.63268872
1  0.18437532  -5.02184849  -1.52057284
1  -3.43203962  -3.64117550  0.35919529
1  -4.12534917  0.65029295  3.31912378
1  -2.21963344  -5.29633220  -1.02844874
7  0.13870834  1.07627728  -0.80916398
7  0.17554414  -1.10216178  0.92553259

-c -h -mn -co -ag -ni -ni 0
def2svp
****
-n -o -f -cl 0
6-31+g(d)
****
-ce 0
sdd
****

-ce 0
sdd



