%chk=b.chk
%nprocshared=28 
%mem=48gb 
# 6-31g(d) m062x g09default scf=(xqc,maxcycle=64) force  guess=read   nosymm

 Title Card 

0 3
6  1.40487904  0.48875901  -0.48586122
6  1.42286534  -0.49597408  0.56668760
6  2.63385185  -0.96662602  1.02265423
6  3.84680551  -0.49344891  0.50104259
6  3.81619690  0.48944571  -0.57497458
6  2.58325469  0.96354083  -1.02489285
1  2.65138607  -1.73837907  1.78672458
1  2.55817101  1.72700371  -1.79710600
6  4.99974939  0.96764328  -1.19320357
7  5.94998466  1.37177618  -1.72804218
6  5.06982432  -0.98019992  1.02490702
7  6.06368346  -1.38957174  1.46979093
6  -0.32760747  2.24891273  -0.27651997
6  -0.87375431  0.47960044  -1.54147014
6  0.36864489  3.16591347  0.52485647
6  -1.68535955  2.43757988  -0.65319935
6  -0.83113152  -0.72227872  -2.24475112
6  -2.03681302  1.28271474  -1.47203849
6  -0.32915075  4.28782443  0.94987666
1  1.40722572  2.99398677  0.78584392
6  -2.35739264  3.56318526  -0.21326481
6  -2.00667366  -1.12523671  -2.88588775
1  0.08345841  -1.30017764  -2.30190894
6  -3.18099387  0.87549446  -2.13266528
6  -1.66973041  4.48318127  0.59005229
1  0.17024104  5.02540203  1.56867429
1  -3.39783841  3.73297156  -0.47290585
6  -3.15529366  -0.33924186  -2.84039189
1  -2.01650677  -2.06163874  -3.43269920
1  -4.08403906  1.47750971  -2.11049733
1  -2.18796750  5.36856378  0.94293706
1  -4.04594454  -0.66207940  -3.36861020
6  -0.87085877  -0.49021977  1.60939679
6  -0.30205812  -2.26073008  0.34999035
6  -0.85740155  0.69454346  2.34172954
6  -2.04102402  -1.26833473  1.46859838
6  0.39195263  -3.19042659  -0.43583494
6  -1.67973041  -2.41170408  0.65244276
6  -2.05394239  1.09590088  2.93357731
1  0.05939856  1.26159233  2.46317447
6  -3.21844263  -0.85905028  2.08873374
6  -0.32332109  -4.27594255  -0.91715378
1  1.44914777  -3.05835181  -0.64219785
6  -2.37385815  -3.50974119  0.15113349
6  -3.21776330  0.32867061  2.81866382
1  -2.07392168  2.01523025  3.51024803
1  -4.11921125  -1.46090168  2.01245909
6  -1.69066380  -4.43459950  -0.63250149
1  0.18456585  -5.02186034  -1.52041402
1  -3.43191732  -3.64109127  0.36003515
1  -4.12551926  0.65088286  3.31851753
1  -2.21943465  -5.29625681  -1.02853014
7  0.13856428  1.07600314  -0.80926254
7  0.17510316  -1.10105643  0.92422953

-c -h -mn -co -ag -ni -ni 0
def2svp
****
-n -o -f -cl 0
6-31+g(d)
****
-ce 0
sdd
****

-ce 0
sdd



