%chk=b.chk
%nprocshared=28 
%mem=48gb 
# 6-31g(d) m062x g09default scf=(xqc,maxcycle=64) force  guess=read   nosymm

 Title Card 

0 3
6  1.40504029  0.49093750  -0.48511635
6  1.42324180  -0.49760164  0.56459480
6  2.63392113  -0.96885258  1.02242385
6  3.84654395  -0.49397103  0.50197841
6  3.81656976  0.48952093  -0.57636596
6  2.58330035  0.96656393  -1.02329061
1  2.65231745  -1.73881246  1.78883341
1  2.55680559  1.72778142  -1.79801410
6  5.00035946  0.96675590  -1.19499447
7  5.95063352  1.37282418  -1.72854821
6  5.06965105  -0.98027845  1.02643411
7  6.06445329  -1.38961963  1.46963479
6  -0.32746122  2.24955601  -0.27668297
6  -0.87487435  0.47716083  -1.53883739
6  0.36800151  3.16495845  0.52593895
6  -1.68518114  2.43583567  -0.65089236
6  -0.83162723  -0.72254114  -2.24519989
6  -2.03682992  1.28136354  -1.47016847
6  -0.33002437  4.28653253  0.95151845
1  1.40810365  2.99559821  0.78298235
6  -2.35757631  3.56263549  -0.21109393
6  -2.00659845  -1.12527542  -2.88616288
1  0.08268707  -1.30131724  -2.30171647
6  -3.18034797  0.87555883  -2.13397140
6  -1.67020579  4.48277364  0.59099474
1  0.17074955  5.02451653  1.56863896
1  -3.39640265  3.73474557  -0.47431958
6  -3.15598551  -0.33917484  -2.84028478
1  -2.01515323  -2.06183061  -3.43287471
1  -4.08253724  1.47886143  -2.11278324
1  -2.18735721  5.36969380  0.94158873
1  -4.04656440  -0.66314399  -3.36782113
6  -0.87222442  -0.48828269  1.60708149
6  -0.30224532  -2.26065613  0.34961581
6  -0.85766969  0.69455981  2.34190318
6  -2.04203967  -1.26794652  1.46795141
6  0.39212507  -3.19010701  -0.43670068
6  -1.67976882  -2.41138408  0.65139386
6  -2.05432707  1.09570020  2.93491790
1  0.05889295  1.26194201  2.46325407
6  -3.21818438  -0.86032094  2.08997933
6  -0.32334917  -4.27519736  -0.91800742
1  1.45009034  -3.06038178  -0.64109954
6  -2.37426999  -3.50863275  0.15091617
6  -3.21752300  0.32799923  2.81975658
1  -2.07463761  2.01571922  3.51014983
1  -4.12001546  -1.46102582  2.01342257
6  -1.69038637  -4.43416239  -0.63328260
1  0.18489321  -5.02201612  -1.51968706
1  -3.43120541  -3.64085773  0.36185040
1  -4.12582655  0.65165836  3.31745631
1  -2.21881668  -5.29556375  -1.02870282
7  0.13903239  1.07526752  -0.80902692
7  0.17349222  -1.09935374  0.92062758

-c -h -mn -co -ag -ni -ni 0
def2svp
****
-n -o -f -cl 0
6-31+g(d)
****
-ce 0
sdd
****

-ce 0
sdd



