%chk=a.chk
%nprocshared=28 
%mem=48gb 
# 6-31g(d) m062x g09default scf=(xqc,maxcycle=64) force  guess=read  td nosymm

 Title Card 

0 1
6  1.40529343  0.49213482  -0.48473664
6  1.42338690  -0.49866014  0.56349756
6  2.63391438  -0.97017802  1.02242742
6  3.84643229  -0.49430972  0.50247348
6  3.81689259  0.48958250  -0.57689883
6  2.58335797  0.96787561  -1.02266013
1  2.65261674  -1.73884988  1.79005870
1  2.55608896  1.72773533  -1.79886747
6  5.00057322  0.96627208  -1.19560733
7  5.95109301  1.37350054  -1.72812470
6  5.06950881  -0.98035730  1.02720661
7  6.06465031  -1.38988621  1.46933033
6  -0.32728095  2.24980961  -0.27710449
6  -0.87523537  0.47629978  -1.53759716
6  0.36759854  3.16471965  0.52624681
6  -1.68518719  2.43534792  -0.65020893
6  -0.83175966  -0.72283287  -2.24556428
6  -2.03701242  1.28048407  -1.46922314
6  -0.33046501  4.28580047  0.95230882
1  1.40821730  2.99606494  0.78217350
6  -2.35753394  3.56223726  -0.21015431
6  -2.00652275  -1.12517764  -2.88651350
1  0.08242912  -1.30153274  -2.30217139
6  -3.18021770  0.87524704  -2.13421341
6  -1.67070207  4.48253096  0.59152354
1  0.17079382  5.02415479  1.56862244
1  -3.39594543  3.73532018  -0.47491465
6  -3.15624542  -0.33923885  -2.84014802
1  -2.01452346  -2.06186185  -3.43321502
1  -4.08221452  1.47909087  -2.11318437
1  -2.18732303  5.37025038  0.94093879
1  -4.04712214  -0.66391749  -3.36698919
6  -0.87276209  -0.48766771  1.60589322
6  -0.30230415  -2.26085857  0.34941920
6  -0.85760725  0.69476190  2.34225016
6  -2.04245992  -1.26750999  1.46771486
6  0.39236152  -3.18971344  -0.43692512
6  -1.67978897  -2.41132773  0.65125828
6  -2.05409681  1.09559304  2.93557154
1  0.05899583  1.26179311  2.46366542
6  -3.21808447  -0.86066079  2.09023810
6  -0.32338675  -4.27502101  -0.91863565
1  1.45035043  -3.06097081  -0.64108586
6  -2.37407210  -3.50842417  0.15071718
6  -3.21725844  0.32807936  2.82020641
1  -2.07472181  2.01609411  3.51022226
1  -4.12049078  -1.46060802  2.01347297
6  -1.69035489  -4.43354760  -0.63339676
1  0.18494378  -5.02184741  -1.51965953
1  -3.43099423  -3.64068863  0.36282008
1  -4.12593308  0.65251989  3.31649167
1  -2.21853865  -5.29544019  -1.02862206
7  0.13935996  1.07494881  -0.80908252
7  0.17297555  -1.09844732  0.91894723

-c -h -mn -co -ag -ni -ni 0
def2svp
****
-n -o -f -cl 0
6-31+g(d)
****
-ce 0
sdd
****

-ce 0
sdd



