%chk=b.chk
%nprocshared=28 
%mem=48gb 
# 6-31g(d) m062x g09default scf=(xqc,maxcycle=64) force  guess=read   nosymm

 Title Card 

0 3
6  1.40553220  0.49308056  -0.48435272
6  1.42356402  -0.49951708  0.56255886
6  2.63390527  -0.97124055  1.02230797
6  3.84627970  -0.49459999  0.50284075
6  3.81711068  0.48962805  -0.57725797
6  2.58343295  0.96896563  -1.02214197
1  2.65283880  -1.73893186  1.79107054
1  2.55550793  1.72774969  -1.79950926
6  5.00077625  0.96588653  -1.19607658
7  5.95145578  1.37401830  -1.72777388
6  5.06937326  -0.98039944  1.02780526
7  6.06481740  -1.39010662  1.46910509
6  -0.32713479  2.25012780  -0.27745769
6  -0.87552139  0.47537809  -1.53664541
6  0.36730792  3.16451432  0.52638516
6  -1.68514698  2.43485784  -0.64973248
6  -0.83193589  -0.72294003  -2.24573057
6  -2.03706621  1.27983321  -1.46831378
6  -0.33089569  4.28530254  0.95295885
1  1.40828784  2.99644060  0.78152505
6  -2.35756918  3.56200250  -0.20941350
6  -2.00644524  -1.12515413  -2.88679433
1  0.08228414  -1.30173157  -2.30260983
6  -3.18024607  0.87493078  -2.13438176
6  -1.67105640  4.48229783  0.59199033
1  0.17081670  5.02384819  1.56864721
1  -3.39556280  3.73574655  -0.47537301
6  -3.15645819  -0.33929870  -2.84003222
1  -2.01403646  -2.06185894  -3.43352090
1  -4.08191458  1.47927089  -2.11354553
1  -2.18731204  5.37071122  0.94040739
1  -4.04757738  -0.66453127  -3.36629703
6  -0.87315035  -0.48697627  1.60497225
6  -0.30233092  -2.26100537  0.34930937
6  -0.85751048  0.69480537  2.34238354
6  -2.04265420  -1.26723845  1.46739348
6  0.39242746  -3.18959337  -0.43712455
6  -1.67980903  -2.41129712  0.65116143
6  -2.05398795  1.09556336  2.93613879
1  0.05911887  1.26169700  2.46400844
6  -3.21814419  -0.86081040  2.09049172
6  -0.32338612  -4.27474128  -0.91903030
1  1.45060057  -3.06139132  -0.64108762
6  -2.37403320  -3.50815929  0.15069111
6  -3.21697818  0.32811838  2.82049568
1  -2.07477359  2.01636488  3.51029032
1  -4.12081297  -1.46025888  2.01352719
6  -1.69026524  -4.43321921  -0.63363080
1  0.18499526  -5.02174834  -1.51969721
1  -3.43077025  -3.64055202  0.36358216
1  -4.12603791  0.65323540  3.31572336
1  -2.21830549  -5.29529854  -1.02854314
7  0.13960573  1.07474972  -0.80911536
7  0.17247968  -1.09781226  0.91761021

-c -h -mn -co -ag -ni -ni 0
def2svp
****
-n -o -f -cl 0
6-31+g(d)
****
-ce 0
sdd
****

-ce 0
sdd



