%chk=b.chk
%nprocshared=28 
%mem=48gb 
# 6-31g(d) m062x g09default scf=(xqc,maxcycle=64) force  guess=read   nosymm

 Title Card 

0 3
6  1.40553662  0.49339294  -0.48433459
6  1.42357757  -0.49974994  0.56225486
6  2.63388893  -0.97159102  1.02242977
6  3.84625967  -0.49471241  0.50314990
6  3.81713497  0.48960780  -0.57750355
6  2.58350033  0.96911591  -1.02206443
1  2.65286987  -1.73880000  1.79157447
1  2.55530823  1.72733383  -1.80014507
6  5.00090378  0.96576114  -1.19608148
7  5.95174334  1.37440983  -1.72719430
6  5.06931930  -0.98051882  1.02804674
7  6.06488038  -1.39041182  1.46888984
6  -0.32708944  2.25032503  -0.27760391
6  -0.87564630  0.47515773  -1.53656432
6  0.36706134  3.16430139  0.52653421
6  -1.68503234  2.43465162  -0.64963215
6  -0.83188563  -0.72284754  -2.24609132
6  -2.03715485  1.27959841  -1.46825260
6  -0.33118603  4.28511612  0.95313768
1  1.40815732  2.99640240  0.78165296
6  -2.35771595  3.56192340  -0.20918586
6  -2.00639767  -1.12508309  -2.88703921
1  0.08229541  -1.30162550  -2.30300211
6  -3.18019795  0.87470300  -2.13426490
6  -1.67121522  4.48217136  0.59206803
1  0.17070963  5.02375020  1.56858418
1  -3.39549229  3.73574384  -0.47548774
6  -3.15662137  -0.33939590  -2.83988444
1  -2.01379431  -2.06180285  -3.43375429
1  -4.08211828  1.47895393  -2.11303851
1  -2.18745741  5.37079277  0.94024444
1  -4.04787603  -0.66499451  -3.36574757
6  -0.87314208  -0.48680186  1.60472474
6  -0.30233523  -2.26100535  0.34934008
6  -0.85725981  0.69475292  2.34266685
6  -2.04283745  -1.26712898  1.46746955
6  0.39246671  -3.18935420  -0.43734490
6  -1.67966341  -2.41130381  0.65116727
6  -2.05373980  1.09568820  2.93646689
1  0.05937530  1.26140762  2.46440074
6  -3.21799284  -0.86067276  2.09049013
6  -0.32330851  -4.27466785  -0.91936355
1  1.45059098  -3.06136865  -0.64142059
6  -2.37410658  -3.50800602  0.15084728
6  -3.21689418  0.32825403  2.82047235
1  -2.07457792  2.01649387  3.51030790
1  -4.12109975  -1.45973891  2.01318627
6  -1.69027433  -4.43323103  -0.63367622
1  0.18491010  -5.02148316  -1.51985797
1  -3.43060454  -3.64048225  0.36389939
1  -4.12601509  0.65388163  3.31510218
1  -2.21812521  -5.29522144  -1.02832395
7  0.13980700  1.07464845  -0.80924471
7  0.17225008  -1.09762678  0.91718770

-c -h -mn -co -ag -ni -ni 0
def2svp
****
-n -o -f -cl 0
6-31+g(d)
****
-ce 0
sdd
****

-ce 0
sdd



