%chk=a.chk
%nprocshared=28 
%mem=48gb 
# 6-31g(d) m062x g09default scf=(xqc,maxcycle=64) force  guess=read  td nosymm

 Title Card 

0 1
6  1.40879401  0.49743998  -0.48043056
6  1.42456542  -0.50041932  0.55980484
6  2.63595303  -0.97404628  1.01719299
6  3.84676468  -0.49593278  0.49899104
6  3.81860894  0.49236007  -0.57714256
6  2.58371263  0.97714644  -1.01612820
1  2.65779091  -1.74280312  1.78535622
1  2.55290122  1.74658035  -1.78244640
6  5.00425885  0.96503876  -1.20650127
7  5.94217458  1.36647637  -1.74697211
6  5.06603112  -0.97500020  1.02653711
7  6.06890213  -1.38164962  1.47615820
6  -0.32951803  2.24510428  -0.26730566
6  -0.87758162  0.46977321  -1.52504523
6  0.37064355  3.16534825  0.52532788
6  -1.68823446  2.42920012  -0.63860084
6  -0.83585223  -0.72939871  -2.23352851
6  -2.03847490  1.27489102  -1.45940281
6  -0.32714231  4.28278363  0.95831714
1  1.41857017  3.00907049  0.75865735
6  -2.35577029  3.56286003  -0.20480334
6  -2.00811435  -1.12820803  -2.87995602
1  0.07601338  -1.31171342  -2.29117106
6  -3.17539382  0.87974189  -2.14200044
6  -1.66767309  4.48144904  0.59719256
1  0.17742302  5.02101287  1.57234446
1  -3.38913420  3.74665526  -0.48073185
6  -3.15472788  -0.33682978  -2.84512860
1  -2.01317871  -2.06406821  -3.42891241
1  -4.06642939  1.49963695  -2.14582604
1  -2.17930169  5.37621943  0.93589776
1  -4.04365429  -0.65743222  -3.37736072
6  -0.87819819  -0.48326909  1.59572263
6  -0.30384749  -2.25638494  0.34044839
6  -0.86612432  0.69970172  2.33345210
6  -2.04608444  -1.26600402  1.46303318
6  0.39198283  -3.19297489  -0.43351238
6  -1.68415856  -2.40905118  0.64372287
6  -2.06191027  1.09236101  2.93458064
1  0.04690441  1.27179913  2.45243286
6  -3.21893416  -0.87054774  2.09668340
6  -0.32024407  -4.27649802  -0.91707561
1  1.45716099  -3.07531127  -0.62370550
6  -2.37517148  -3.50654729  0.14694314
6  -3.22049409  0.31865063  2.82838143
1  -2.08552030  2.01347896  3.50890797
1  -4.11739211  -1.47728849  2.03116854
6  -1.69335847  -4.43140210  -0.63797957
1  0.18820519  -5.02884172  -1.50938568
1  -3.43168737  -3.64143200  0.36562963
1  -4.12881762  0.63898971  3.32758206
1  -2.21875523  -5.29170586  -1.03619501
7  0.13891835  1.07257930  -0.80097017
7  0.16828902  -1.09287561  0.90794417

-c -h -mn -co -ag -ni -ni 0
def2svp
****
-n -o -f -cl 0
6-31+g(d)
****
-ce 0
sdd
****

-ce 0
sdd



