%chk=a.chk
%nprocshared=28 
%mem=48gb 
# 6-31g(d) m062x g09default scf=(xqc,maxcycle=64) force  guess=read  td nosymm

 Title Card 

0 1
6  1.40421175  0.49648069  -0.47576598
6  1.43222033  -0.50196818  0.56018779
6  2.62754236  -0.96972458  1.00922427
6  3.84249630  -0.49316827  0.49724218
6  3.82851360  0.49358488  -0.58040892
6  2.58638671  0.97710026  -1.01421452
1  2.66126787  -1.74467719  1.78630617
1  2.55035865  1.75350575  -1.77978634
6  4.97145909  0.94915328  -1.18955445
7  5.96872095  1.37816444  -1.76815303
6  5.10408010  -0.98964086  1.04349490
7  6.03870916  -1.36669524  1.46354087
6  -0.33071377  2.23892426  -0.26063479
6  -0.87783163  0.47000485  -1.52124624
6  0.36890169  3.16348220  0.52748244
6  -1.68786994  2.42352122  -0.63183898
6  -0.83749912  -0.73253943  -2.23162180
6  -2.04058446  1.27056675  -1.45920274
6  -0.32328307  4.28172583  0.96217520
1  1.42348105  3.01542025  0.74934724
6  -2.36023879  3.56109475  -0.20574248
6  -2.00719633  -1.13031748  -2.87671886
1  0.07255357  -1.31518879  -2.28786423
6  -3.17375743  0.88927576  -2.14023356
6  -1.66734584  4.48655037  0.60068605
1  0.17837582  5.01767320  1.57280636
1  -3.38589553  3.75145302  -0.48258252
6  -3.16182034  -0.34384161  -2.85247161
1  -2.01046377  -2.06275386  -3.42822975
1  -4.05782292  1.50333417  -2.15558682
1  -2.17592869  5.37595863  0.93281041
1  -4.03986478  -0.65610945  -3.37612329
6  -0.88115467  -0.48543560  1.58762872
6  -0.29577005  -2.26026381  0.32749037
6  -0.86941583  0.70484024  2.33367551
6  -2.04863925  -1.26148095  1.46621758
6  0.37437359  -3.19859099  -0.43551269
6  -1.69188442  -2.41495871  0.63730771
6  -2.06321768  1.08749768  2.93307212
1  0.04265489  1.27345379  2.45009076
6  -3.21563163  -0.87683127  2.09862665
6  -0.30419075  -4.26263526  -0.91251657
1  1.46350299  -3.08256565  -0.61837057
6  -2.36880073  -3.49473411  0.15225523
6  -3.22002446  0.31809808  2.83263008
1  -2.08871119  2.01388071  3.50876991
1  -4.11850558  -1.47983698  2.03597876
6  -1.70204055  -4.44123190  -0.64289590
1  0.18871192  -5.03156890  -1.50743290
1  -3.43479972  -3.64206356  0.36821736
1  -4.12993463  0.63751114  3.32825479
1  -2.21450533  -5.28439591  -1.03620442
7  0.13845316  1.07341352  -0.79737824
7  0.16205631  -1.08373815  0.90296476

-c -h -mn -co -ag -ni -ni 0
def2svp
****
-n -o -f -cl 0
6-31+g(d)
****
-ce 0
sdd
****

-ce 0
sdd



