%chk=b.chk
%nprocshared=28 
%mem=48gb 
# 6-31g(d) m062x g09default scf=(xqc,maxcycle=64) force  guess=read   nosymm

 Title Card 

0 3
6  1.40728473  0.49863747  -0.48102919
6  1.42417412  -0.50181429  0.56012693
6  2.63536976  -0.97522693  1.01753744
6  3.84629270  -0.49646861  0.49963652
6  3.81906741  0.49369874  -0.57852365
6  2.58360041  0.97793502  -1.01590702
1  2.65735441  -1.74287334  1.78564148
1  2.55308179  1.74595100  -1.78330050
6  4.99876717  0.96276032  -1.20320804
7  5.94712954  1.36855386  -1.74876935
6  5.06938421  -0.97638283  1.02808598
7  6.06621350  -1.38094779  1.47480402
6  -0.32928646  2.24786591  -0.26873308
6  -0.87798386  0.46898438  -1.52500739
6  0.37026148  3.16533371  0.52454181
6  -1.68703190  2.42959073  -0.63955943
6  -0.83583112  -0.72891903  -2.23409384
6  -2.03802566  1.27528406  -1.45940709
6  -0.32750497  4.28318603  0.95786669
1  1.41798274  3.00806719  0.76016462
6  -2.35556622  3.56343679  -0.20455468
6  -2.00762592  -1.12820716  -2.88034239
1  0.07653002  -1.31113565  -2.29175933
6  -3.17603453  0.87890954  -2.14210883
6  -1.66811158  4.48135621  0.59683897
1  0.17708214  5.02133140  1.57214056
1  -3.38953269  3.74590562  -0.48031762
6  -3.15475977  -0.33601977  -2.84445087
1  -2.01353060  -2.06403576  -3.42897849
1  -4.06735249  1.49873231  -2.14434437
1  -2.17973657  5.37596336  0.93630575
1  -4.04373926  -0.65746068  -3.37719532
6  -0.87829547  -0.48238814  1.59619992
6  -0.30494613  -2.25841372  0.34230881
6  -0.86579420  0.69911129  2.33375562
6  -2.04595487  -1.26624163  1.46288543
6  0.39359928  -3.19259044  -0.43314409
6  -1.68222993  -2.40856847  0.64438163
6  -2.06140823  1.09292671  2.93471306
1  0.04758738  1.27154669  2.45283625
6  -3.21900113  -0.86964422  2.09638060
6  -0.32226323  -4.27731213  -0.91700955
1  1.45637086  -3.07416431  -0.62459321
6  -2.37619578  -3.50723541  0.14682467
6  -3.22034297  0.31870692  2.82758191
1  -2.08499626  2.01352090  3.50894830
1  -4.11735139  -1.47689305  2.03037622
6  -1.69185296  -4.43135868  -0.63811866
1  0.18824505  -5.02877288  -1.51003535
1  -3.43146108  -3.64135784  0.36519408
1  -4.12866612  0.63931628  3.32742559
1  -2.21921087  -5.29236367  -1.03598378
7  0.14014203  1.07189768  -0.80165562
7  0.16979248  -1.09300071  0.90881989

-c -h -mn -co -ag -ni -ni 0
def2svp
****
-n -o -f -cl 0
6-31+g(d)
****
-ce 0
sdd
****

-ce 0
sdd



