%chk=a.chk
%nprocshared=28 
%mem=48gb 
# 6-31g(d) m062x g09default scf=(xqc,maxcycle=64) force  guess=read  td nosymm

 Title Card 

0 1
6  1.40741609  0.49760660  -0.48019387
6  1.42475858  -0.50166275  0.55907935
6  2.63512087  -0.97607363  1.01804564
6  3.84697885  -0.49635448  0.49938371
6  3.81799475  0.49358384  -0.57799934
6  2.58415072  0.97867437  -1.01594301
1  2.65656725  -1.74328054  1.78636568
1  2.55345075  1.74490400  -1.78474858
6  4.99848826  0.96310036  -1.20280715
7  5.94754813  1.36859562  -1.74719552
6  5.06853778  -0.97626219  1.02792488
7  6.06606064  -1.38159381  1.47437224
6  -0.32812233  2.24828965  -0.27228717
6  -0.87765943  0.46934944  -1.52460349
6  0.37065472  3.16659219  0.52423215
6  -1.68664309  2.43162528  -0.64114718
6  -0.83527594  -0.72901817  -2.23516553
6  -2.03807073  1.27542399  -1.46001342
6  -0.32796434  4.28375991  0.95709353
1  1.41655705  3.00631921  0.76267773
6  -2.35548502  3.56298283  -0.20523237
6  -2.00765743  -1.12771183  -2.88105376
1  0.07725201  -1.30997064  -2.29276723
6  -3.17628200  0.87884301  -2.14107558
6  -1.66828236  4.48177441  0.59674470
1  0.17643929  5.02185751  1.57176329
1  -3.39002155  3.74455961  -0.47950491
6  -3.15452070  -0.33615793  -2.84410885
1  -2.01416342  -2.06404499  -3.42915178
1  -4.06899659  1.49706866  -2.14174844
1  -2.18051331  5.37549766  0.93700594
1  -4.04367318  -0.65739760  -3.37673481
6  -0.87735151  -0.48263449  1.59673445
6  -0.30414401  -2.25893341  0.34518540
6  -0.86494595  0.69898013  2.33450389
6  -2.04545312  -1.26621829  1.46278025
6  0.39397569  -3.19393246  -0.43315013
6  -1.68230385  -2.40992793  0.64522768
6  -2.06103482  1.09336091  2.93472809
1  0.04860951  1.27091500  2.45350421
6  -3.21900653  -0.86876144  2.09527973
6  -0.32268372  -4.27687137  -0.91659427
1  1.45529991  -3.07212311  -0.62613184
6  -2.37572988  -3.50684726  0.14709462
6  -3.22004679  0.31971539  2.82676287
1  -2.08408406  2.01376295  3.50916199
1  -4.11722981  -1.47608901  2.02901076
6  -1.69143478  -4.43197891  -0.63818198
1  0.18792812  -5.02842171  -1.51094541
1  -3.43140176  -3.64133086  0.36446273
1  -4.12824595  0.63980124  3.32703408
1  -2.21947797  -5.29288435  -1.03533708
7  0.13867264  1.07340830  -0.80284914
7  0.16913329  -1.09515593  0.91070424

-c -h -mn -co -ag -ni -ni 0
def2svp
****
-n -o -f -cl 0
6-31+g(d)
****
-ce 0
sdd
****

-ce 0
sdd



