%chk=b.chk
%nprocshared=28 
%mem=48gb 
# 6-31g(d) m062x g09default scf=(xqc,maxcycle=64) force  guess=read   nosymm

 Title Card 

0 3
6  1.40870570  0.49351656  -0.48004260
6  1.42476480  -0.50115996  0.55907125
6  2.63541266  -0.97406492  1.01868535
6  3.84567055  -0.49399324  0.49657255
6  3.81596881  0.49109575  -0.57321368
6  2.58405537  0.97528039  -1.01684442
1  2.65315016  -1.74399764  1.78801951
1  2.55544250  1.73998441  -1.79048927
6  4.99858246  0.96558795  -1.20042485
7  5.94759902  1.36824379  -1.73926582
6  5.06901372  -0.97735025  1.02735280
7  6.06384033  -1.38403492  1.47217105
6  -0.32559120  2.24968171  -0.28036510
6  -0.87704786  0.47288813  -1.52923418
6  0.37133128  3.16948044  0.52164556
6  -1.68662404  2.43725032  -0.65039844
6  -0.83296247  -0.72706547  -2.23686919
6  -2.03944122  1.27780596  -1.46271150
6  -0.32823209  4.28613131  0.95396157
1  1.41146879  2.99942907  0.77403679
6  -2.35596250  3.56228563  -0.20903495
6  -2.00837609  -1.12628160  -2.88418145
1  0.08108471  -1.30554399  -2.29744540
6  -3.17757741  0.87869388  -2.13589106
6  -1.66868411  4.48294046  0.59524672
1  0.17352312  5.02427484  1.57051695
1  -3.39296848  3.73853027  -0.47585728
6  -3.15330809  -0.33762525  -2.84310125
1  -2.01676666  -2.06362933  -3.43026741
1  -4.07581806  1.48932741  -2.12958771
1  -2.18441352  5.37372337  0.94036193
1  -4.04382174  -0.65759456  -3.37442169
6  -0.87406621  -0.48652046  1.60171185
6  -0.30243960  -2.26030692  0.35210606
6  -0.86168058  0.69767607  2.33626277
6  -2.04383720  -1.26663840  1.46298830
6  0.39414938  -3.19543856  -0.43164083
6  -1.68184259  -2.41220678  0.65081513
6  -2.05830329  1.09492124  2.93409195
1  0.05352532  1.26803020  2.45697824
6  -3.21919557  -0.86382896  2.09119809
6  -0.32227373  -4.27718218  -0.91648548
1  1.45202390  -3.06414052  -0.63333860
6  -2.37513902  -3.50854729  0.14781561
6  -3.21944580  0.32316537  2.82287700
1  -2.08009325  2.01493686  3.51032012
1  -4.11675270  -1.47164936  2.02260878
6  -1.69176821  -4.43350548  -0.63660775
1  0.18618853  -5.02624604  -1.51496517
1  -3.43123694  -3.64107694  0.36121076
1  -4.12659447  0.64253891  3.32493935
1  -2.22030381  -5.29500819  -1.03253382
7  0.13825440  1.07644432  -0.80566751
7  0.17250197  -1.10051448  0.91751241

-c -h -mn -co -ag -ni -ni 0
def2svp
****
-n -o -f -cl 0
6-31+g(d)
****
-ce 0
sdd
****

-ce 0
sdd



