%chk=a.chk
%nprocshared=28 
%mem=48gb 
# 6-31g(d) m062x g09default scf=(xqc,maxcycle=64) force  guess=read  td nosymm

 Title Card 

0 1
6  1.40846150  0.49237086  -0.48046539
6  1.42519943  -0.50031615  0.56035542
6  2.63471715  -0.97283996  1.01916020
6  3.84641537  -0.49449608  0.49747915
6  3.81650632  0.49149912  -0.57357304
6  2.58417195  0.97356558  -1.01863140
1  2.65290252  -1.74294471  1.78712177
1  2.55588844  1.73824514  -1.79048620
6  4.99864197  0.96589181  -1.19927829
7  5.94724558  1.36824974  -1.73777373
6  5.06895852  -0.97750436  1.02661619
7  6.06340953  -1.38449885  1.47187776
6  -0.32577317  2.24907716  -0.27927853
6  -0.87597691  0.47418363  -1.53122048
6  0.37116905  3.16870239  0.52121193
6  -1.68623179  2.43706816  -0.65146798
6  -0.83287885  -0.72648628  -2.23716299
6  -2.03914665  1.27857583  -1.46363383
6  -0.32798583  4.28688187  0.95362862
1  1.41096559  2.99873551  0.77573640
6  -2.35652263  3.56288100  -0.20987890
6  -2.00771981  -1.12646487  -2.88424501
1  0.08141490  -1.30478624  -2.29805057
6  -3.17856630  0.87820918  -2.13544458
6  -1.66880549  4.48309356  0.59458853
1  0.17301242  5.02446248  1.57035130
1  -3.39369999  3.73764149  -0.47527231
6  -3.15402438  -0.33769356  -2.84310582
1  -2.01699734  -2.06332047  -3.43057204
1  -4.07665870  1.48783892  -2.12730539
1  -2.18490574  5.37301560  0.94079703
1  -4.04375352  -0.65780780  -3.37371026
6  -0.87298739  -0.48715121  1.60302108
6  -0.30222815  -2.26098844  0.35077769
6  -0.86125027  0.69724807  2.33647298
6  -2.04360955  -1.26691010  1.46366380
6  0.39371912  -3.19418757  -0.43134703
6  -1.68126744  -2.41179246  0.65147250
6  -2.05752824  1.09499990  2.93372115
1  0.05412312  1.26722340  2.45763662
6  -3.21908260  -0.86279060  2.09085029
6  -0.32258260  -4.27725260  -0.91633039
1  1.45158556  -3.06335577  -0.63445634
6  -2.37504201  -3.50911041  0.14824388
6  -3.21939195  0.32368033  2.82227347
1  -2.07940409  2.01491735  3.51038426
1  -4.11699294  -1.47056966  2.02140480
6  -1.69148440  -4.43369742  -0.63615844
1  0.18603065  -5.02588528  -1.51580862
1  -3.43158543  -3.64108933  0.36081395
1  -4.12647231  0.64331892  3.32438632
1  -2.22028780  -5.29518062  -1.03207098
7  0.13764297  1.07684548  -0.80605974
7  0.17235159  -1.10058876  0.91893328

-c -h -mn -co -ag -ni -ni 0
def2svp
****
-n -o -f -cl 0
6-31+g(d)
****
-ce 0
sdd
****

-ce 0
sdd



