%pal nprocs 28 end
%maxcore 1000 
! b3lyp 6-31g(d) engrad 
!moread 
 %moinp "JOBS/a.gbw"
 

 *xyz 0 3
c  1.4769902850794374  0.6286962178747458  -2.233227752804534e-07
h  1.66093314843506  -0.548092371047453  -2.8276152060345505e-07
h  0.35195878122000834  0.2342499588456932  -2.471241181510516e-07
*
%tddft sf true
nroots 2
iroot 0
end

