%pal nprocs 28 end
%maxcore 1000 
! b3lyp 6-31g(d) engrad 
!moread 
 %moinp "JOBS/a.gbw"
 

 *xyz 0 3
c  1.4841217421700414  0.6183343662561748  -2.764623360181896e-07
h  1.6561527860094336  -0.5607423644776254  -2.2586938167488253e-07
h  0.35513858654821956  0.23475529401676035  -2.0542572804461944e-07
*
%tddft sf true
nroots 2
iroot 0
end

