%pal nprocs 28 end
%maxcore 1000 
! b3lyp 6-31g(d) engrad 
!moread 
 %moinp "JOBS/a.gbw"
 

 *xyz 0 3
c  1.4948470933500553  0.49472405823350685  2.4136420970242955e-10
h  1.738148914974475  -0.7079070172219543  3.10378787905139e-11
h  0.2811124269329286  0.32167592077796525  2.2306102212134542e-10
*
%tddft sf true
nroots 2
iroot 0
end

