%pal nprocs 28 end
%maxcore 1000 
! b3lyp 6-31g(d) engrad 
!moread 
 %moinp "JOBS/b.gbw"
 

 *xyz 0 3
c  1.526680316320647  0.529596863537013  -1.009634373979764e-08
h  1.6206766456829864  -0.6642200705878063  3.168588741263706e-08
h  0.36947460755088285  0.23112315346199386  2.9085610315522252e-08
*
%tddft sf true
nroots 2
iroot 1
end

