91
 energy: -204.991993018713 gnorm: 0.002579435395 xtb: 6.6.0 (8843059)
C            0.49037852797278       -0.14540933792757       -0.04546508567492
C           -0.07885266808096       -1.28961617738621        0.51526310531221
C           -0.35681920723757        0.84401918229332       -0.54613990550483
C           -1.45009696212437       -1.45622672462659        0.53940662748725
H            0.56629509259053       -2.05335497942718        0.92506741816615
C            1.94524939769076       -0.02154222568700       -0.08487816742306
C           -1.72760982455145        0.67647608166240       -0.51462926448359
H            0.05541202670002        1.75814820589212       -0.94310364021956
C           -2.27989671782016       -0.47689629145957        0.01722625700077
H           -1.87550448124178       -2.35208148140911        0.96945339404979
C            2.62416509725822        0.78532181484681       -0.89263245084390
H            2.47757871946679       -0.67813313210743        0.59128237613000
H           -2.36315073766235        1.45975804637531       -0.89789546040122
H           -3.35200808075900       -0.61353296786462        0.03325533692361
H            3.69860655071450        0.83243039440570       -0.86888993866777
H            2.13604028721638        1.43934605210303       -1.59519331145984
C            5.17228325655095        0.82860501794006        2.01253680991453
H            5.51054993786248        1.30838095599289        1.09537225356814
H            4.17997032555833        1.15655675208603        2.31829115456813
Cl           6.31528956157484        1.21605763878457        3.30739553562882
Cl           5.10219044970156       -0.91469871488996        1.73170811049656
C            5.60092860812432       -1.52399149383043       -1.60915881554236
H            4.60089753999826       -1.53899247054329       -1.17680126679270
H            6.26595420280528       -2.23294875155948       -1.11914536288111
Cl           6.27807295668503        0.09490304387204       -1.40544312943362
Cl           5.48272946259541       -1.94465196625628       -3.32670859712918
C            1.97719515588906        3.15956680401074        1.46716244036283
H            1.73617791392042        2.12939573066366        1.20563454409366
H            1.17984311825594        3.84975981146781        1.19716903211932
Cl           3.45091777254736        3.62360565503077        0.60644637887203
Cl           2.22159222168210        3.25466272233316        3.21610506858372
C           -2.24251555012857        0.89680032114446        3.33445040897342
H           -2.34664037150944       -0.18238718749025        3.22924858357748
H           -2.28987244709256        1.21632798436833        4.37542489119886
Cl          -3.55610122020888        1.67601322952789        2.45156169282745
Cl          -0.67863068915724        1.36506433311372        2.67627260233134
C           -0.97458421218200        4.42823856940131        4.31803735759931
H           -0.45010200651698        5.34212634884679        4.59180818780299
H           -0.58172748006960        3.98043258583874        3.40681350691415
Cl          -2.68641484309899        4.80875924573416        4.06371714298254
Cl          -0.76957696664849        3.25870791385483        5.62991790107798
C            4.30092017941007        1.31795668398249       -4.04328726163958
H            3.68384529011308        0.63907423753007       -3.45582214154390
H            5.35239802367255        1.03555827729320       -4.03277544749565
Cl           4.15549443828580        2.93743002880694       -3.35320335173126
Cl           3.72506508574746        1.27533176090366       -5.71516953800500
C           -5.28133259804415        2.24739631354744       -0.60254266312898
H           -6.35737429931696        2.10789106318736       -0.50937579618949
H           -4.71907139089513        1.53475390865266       -0.00051790754860
Cl          -4.88045886582469        3.87247595470991       -0.03601927169943
Cl          -4.83854738174095        2.02691912871355       -2.30301610129549
C           -1.49131723667953        1.05963231823893       -4.08347022901201
H           -1.72955820948956        1.25586792726760       -5.12850433505942
H           -2.06566280658090        1.68893900115270       -3.40396879999021
Cl           0.21876645902406        1.38584100734375       -3.83461357562509
Cl          -1.87247871721941       -0.63235824235112       -3.72124183265038
C           -1.44385709400214        5.70001777736030        0.73364679533122
H           -1.45903053007788        6.00589225345308       -0.31230410858557
H           -2.29009213384348        6.09426545719091        1.29479019032892
Cl           0.04666390073495        6.30831569235600        1.46645871111377
Cl          -1.49855233210143        3.93949907901092        0.80322800861932
C            1.48356348449789        0.21084865403602        5.00421849624048
H            1.26129717159905        1.27622249529796        4.95673493499764
H            2.22949506165366       -0.02556219358830        5.76129981610797
Cl           2.10185284980880       -0.29780592792565        3.43710143982418
Cl          -0.01018368172737       -0.65281412584955        5.40281327311056
C            1.16831100822197       -2.04215217744117       -2.88340315151136
H            0.42287617016053       -2.74199576558617       -3.25847980400842
H            0.71382341221586       -1.19523369231011       -2.36991340585215
Cl           2.10960946126903       -1.43989972611771       -4.25364465847241
Cl           2.20108023384539       -2.89310959780466       -1.73168648077119
C            1.75104735453696        4.03534089964856       -5.69914942392765
H            2.63839192495568        3.97600808120675       -6.32640715701746
H            1.84559737561072        3.42938557841211       -4.79896822058785
Cl           1.51751471941108        5.72228556547090       -5.21771131388816
Cl           0.36500259741315        3.44575314395460       -6.62766933171059
C           -1.66146219261022        4.68968509190133       -3.93229748871504
H           -0.71639534655521        4.19210960297292       -4.14233471560957
H           -1.56645246325974        5.77424428287659       -3.92490586821884
Cl          -2.83778840931067        4.22466866373675       -5.17438955511794
Cl          -2.20127453101524        4.17230945700997       -2.34147822696442
C            1.78193865349725        5.72706819186051       -1.73263276428405
H            2.58916010084351        5.86300992143322       -2.45077633862912
H            2.11845304414101        5.84618468500114       -0.70355579239727
Cl           0.52571092419033        6.93479276543954       -2.06169329712894
Cl           1.14906322679388        4.10117166181934       -1.92302352410598
C           -4.32404276826280        6.94182140319248       -1.67249480559437
H           -5.11370894755715        7.43562986871386       -2.23744110859867
H           -4.30202250961320        5.86438934509975       -1.83470524844460
Cl          -2.76897965687001        7.61712605086933       -2.18557822982435
Cl          -4.59857218653149        7.23672182888608        0.05161727416360
