%pal nprocs 28 end
%maxcore 1000 
! hf 3-21g engrad 
!moread 
 %moinp "JOBS/a.gbw"
 

 *xyz 0 1
c  1.1946582084803286  0.06827804739034433  5.442721801185273e-06
h  2.0211252130023594  -0.5905376189335956  -2.721349970350646e-06
h  0.29804559903076816  0.6278954355405177  -2.721356243999638e-06
*
% casscf nel 2 norb 2 nroots 2 weights[0] = 1,0
maxiter 200
orbstep superci_pt 
switchstep diis 
shiftup 2.0 
shiftdn 2.0 
minshift 0.6 
end

