%pal nprocs 28 end
%maxcore 1000 
! hf 3-21g engrad 
!moread 
 %moinp "JOBS/a.gbw"
 

 *xyz 0 1
c  1.2645369938527073  0.16709863452432397  -5.47857792672704e-08
h  1.9686886626398885  -0.6275749943661302  2.7391608012568932e-08
h  0.2806033641068738  0.566112223965118  2.7395125776043763e-08
*
% casscf nel 2 norb 2 nroots 2 weights[0] = 1,0
maxiter 200
orbstep superci_pt 
switchstep diis 
shiftup 2.0 
shiftdn 2.0 
minshift 0.6 
end

