%pal nprocs 28 end
%maxcore 1000 
! hf 3-21g engrad 
!moread 
 %moinp "JOBS/a.gbw"
 

 *xyz 0 1
c  1.2483128532134928  0.14415391002844  8.996905263698883e-07
h  1.9835960651802065  -0.6209075658801803  -4.498506255487902e-07
h  0.28192010220353175  0.5823895199886454  -4.4981707136276595e-07
*
% casscf nel 2 norb 2 nroots 2 weights[0] = 1,0
maxiter 200
orbstep superci_pt 
switchstep diis 
shiftup 2.0 
shiftdn 2.0 
minshift 0.6 
end

