%chk=b.chk
%nprocshared=56
%mem=96GB
# opt freq genecp nosymm em=gd3bj g09default pbe1pbe scf=(xqc,maxcycle=64)
guess=indo

Title Card

0 3
 C                 -0.00000300    0.66074800    0.00023800
 C                 -1.20002000    1.36810400    0.00006100
 C                 -1.22726700    2.76303900   -0.00011500
 C                  0.00000000    3.44174000   -0.00014900
 C                  1.22726400    2.76303500    0.00002300
 C                  1.20001500    1.36809900    0.00018200
 H                 -2.15842100    3.33313300   -0.00029800
 H                  0.00000100    4.53583300   -0.00030400
 H                  2.15841700    3.33312900   -0.00003600
 C                  3.64589000    0.57313700    0.00004000
 C                  1.88180300   -0.88664100    0.00013600
 C                  4.14881100   -0.74536300   -0.00007500
 C                  4.51812800    1.66227600    0.00003700
 C                  5.51457600   -1.01248300   -0.00018800
 C                  5.88773600    1.39360300   -0.00009700
 H                  4.15451300    2.69021000    0.00015400
 C                  6.38083700    0.08171400   -0.00020800
 H                  5.89336600   -2.03749600   -0.00025800
 H                  6.59179600    2.23083300   -0.00010300
 H                  7.46135100   -0.08823700   -0.00030500
 C                 -3.64589000    0.57313800   -0.00004200
 C                 -1.88179000   -0.88663300   -0.00003200
 C                 -4.14880300   -0.74536500   -0.00005000
 C                 -4.51813000    1.66227400   -0.00001600
 C                 -5.51456600   -1.01248900   -0.00003700
 C                 -5.88773800    1.39359700   -0.00001400
 H                 -4.15451400    2.69020800    0.00002600
 C                 -6.38083200    0.08170600   -0.00002900
 H                 -5.89335300   -2.03750400   -0.00003100
 H                 -6.59180100    2.23082500    0.00000800
 H                 -7.46134600   -0.08825000   -0.00002700
 N                 -2.27245300    0.44451400   -0.00002000
 N                 -3.05024000   -1.58686700   -0.00007700
 N                  2.27245100    0.44450600    0.00018100
 N                  3.05025200   -1.58686900   -0.00004000
 C                  3.13978400   -3.02154300   -0.00004400
 H                  3.67074600   -3.38192800   -0.89850500
 H                  3.67022200   -3.38199900    0.89870300
 H                  2.11991400   -3.43362400   -0.00036700
 C                 -3.13976500   -3.02154000   -0.00002800
 H                 -3.67009000   -3.38197100    0.89879500
 H                 -3.67083600   -3.38195800   -0.89841300
 H                 -2.11989300   -3.43361800   -0.00046600
 Co                -0.00001300   -1.15294400    0.00013200

-C -H -O -N 0
6-31g(d)
****
-Co 0
SDD
****

-Co 0
SDD





