%chk=a.chk
%nprocshared=28 
%mem=48gb 
# wb97xd def2svp scrf=(smd,solvent=acetonitrile) g09default scf=(xqc,maxcycle=64) force  guess=read   nosymm

 Title Card 

-2 1
6  -8.93789678  -0.89670445  1.11291185
6  -8.93825313  0.53329302  1.25522779
6  -8.22458205  -2.12521657  0.97944848
6  -6.97999270  -2.83822467  0.89797703
6  -9.65493816  -2.12778677  0.99360192
6  -10.90215216  -2.84127544  0.93502638
6  -10.16921176  1.20455224  1.33775474
7  -11.21339317  1.74350924  1.40651655
6  -7.70241863  1.20815133  1.32176609
7  -6.66615113  1.74147949  1.37459888
6  -5.78141542  -2.10982438  0.95212190
7  -4.78945871  -1.47661241  1.00080850
6  -7.01106951  -4.23185789  0.74623390
7  -7.06003141  -5.40760372  0.61855494
6  -10.87006779  -4.24953238  0.81897774
7  -10.81915589  -5.40604015  0.72839758
6  -12.10101312  -2.11066140  0.99918133
7  -13.08869361  -1.47982323  1.04969937



