%chk=b.chk
%nprocshared=28 
%mem=48gb 
# wb97xd def2svp scrf=(smd,solvent=acetonitrile) g09default scf=(xqc,maxcycle=64) force  guess=read   nosymm

 Title Card 

-1 2
6  -8.93850878  -0.90829144  1.11216956
6  -8.93749625  0.55990626  1.25749088
6  -8.23531622  -2.11917872  0.97932268
6  -6.95756944  -2.85083111  0.89742170
6  -9.64374267  -2.12113117  0.99460810
6  -10.92454356  -2.85541993  0.93408883
6  -10.16904431  1.22023463  1.33957275
7  -11.21962447  1.74349755  1.40730964
6  -7.70784839  1.22159862  1.32274344
7  -6.65536153  1.74345165  1.37548837
6  -5.76766952  -2.11846548  0.95135200
7  -4.78625573  -1.47121767  1.00041830
6  -6.99813550  -4.24352361  0.74442363
7  -7.06274776  -5.40958286  0.61680585
6  -10.88519277  -4.24689734  0.82047751
7  -10.81494430  -5.42037049  0.72870309
6  -12.11229379  -2.12101030  0.99707183
7  -13.09360012  -1.47294671  1.04933679


