%chk=b.chk
%nprocshared=28 
%mem=48gb 
# wb97xd def2svp scrf=(smd,solvent=acetonitrile) g09default scf=(xqc,maxcycle=64) force  guess=read   nosymm

 Title Card 

-1 2
6  -8.94003480  -0.90465214  1.11185574
6  -8.94197450  0.52915647  1.25477007
6  -8.23176516  -2.12281084  0.97915221
6  -6.98123563  -2.83762734  0.89779759
6  -9.64297169  -2.12023219  0.99478496
6  -10.90253102  -2.83910220  0.93549409
6  -10.16351844  1.20719414  1.33839031
7  -11.20699291  1.73856952  1.40583272
6  -7.68663696  1.22153489  1.32259913
7  -6.69002034  1.72807236  1.37349129
6  -5.79190089  -2.12323845  0.95146342
7  -4.78868528  -1.47455617  1.00089265
6  -7.00467315  -4.21872057  0.74778794
7  -7.06185034  -5.40674383  0.61876035
6  -10.87441489  -4.25240813  0.81906975
7  -10.81972652  -5.39334889  0.72925735
6  -12.09792302  -2.11915491  0.99765529
7  -13.08303957  -1.48210983  1.04975013


