%chk=a.chk
%nprocshared=28 
%mem=48gb 
# wb97xd def2svp scrf=(smd,solvent=acetonitrile) g09default scf=(xqc,maxcycle=64) force  guess=read   nosymm

 Title Card 

-2 1
6  -8.94157606  -0.88031171  1.11331686
6  -8.94296398  0.50956761  1.25304591
6  -8.21130274  -2.13603596  0.97839896
6  -6.99846781  -2.82890734  0.89882828
6  -9.66128425  -2.13045392  0.99407707
6  -10.88593124  -2.82955112  0.93642213
6  -10.17735798  1.22358306  1.34032887
7  -11.20814898  1.73835200  1.40636702
6  -7.67186579  1.23850479  1.32436029
7  -6.68864680  1.72799859  1.37390888
6  -5.77167654  -2.12065328  0.95161875
7  -4.78657089  -1.47256940  1.00032644
6  -6.99711749  -4.23830394  0.74539509
7  -7.06278746  -5.40729831  0.61720207
6  -10.88218756  -4.27054393  0.81869788
7  -10.81877761  -5.39699752  0.73027277
6  -12.11871249  -2.11630095  0.99719306
7  -13.08451944  -1.48025681  1.04904463



