%chk=a.chk
%nprocshared=28 
%mem=48gb 
# wb97xd def2svp scrf=(smd,solvent=acetonitrile) g09default scf=(xqc,maxcycle=64) force  guess=read   nosymm

 Title Card 

-2 1
6  -8.94326189  -0.86574815  1.11335367
6  -8.94693138  0.48669222  1.25119700
6  -8.19002380  -2.14660392  0.97879443
6  -7.01883283  -2.81666811  0.89964040
6  -9.68681693  -2.14166481  0.99312072
6  -10.85781096  -2.81176142  0.93790015
6  -10.18547533  1.23345651  1.34122806
7  -11.21983301  1.74467271  1.40785569
6  -7.65768322  1.25435248  1.32580630
7  -6.67926904  1.73008230  1.37462581
6  -5.75781925  -2.11790331  0.95192843
7  -4.77928206  -1.46880079  0.99993245
6  -6.99438730  -4.25310133  0.74371979
7  -7.06157624  -5.41531212  0.61490969
6  -10.89028275  -4.28602907  0.81824856
7  -10.81451158  -5.40747050  0.73099363
6  -12.13128430  -2.11537459  0.99699218
7  -13.09481320  -1.47299623  1.04855799



