%chk=a.chk
%nprocshared=28 
%mem=48gb 
# wb97xd def2svp scrf=(smd,solvent=acetonitrile) g09default scf=(xqc,maxcycle=64) force  guess=read   nosymm

 Title Card 

-2 1
6  -8.94457193  -0.87662967  1.11182199
6  -8.94399133  0.49631739  1.25182401
6  -8.20411707  -2.13939140  0.97874948
6  -7.01055441  -2.82486711  0.89883637
6  -9.66951958  -2.13192713  0.99454467
6  -10.86872136  -2.81794043  0.93772683
6  -10.18276238  1.24191595  1.34259614
7  -11.21577064  1.74089673  1.40764519
6  -7.68798009  1.25047290  1.32448812
7  -6.65896013  1.73625269  1.37583090
6  -5.75196666  -2.12613489  0.95166959
7  -4.78535333  -1.47102978  0.99954968
6  -6.98573111  -4.24110877  0.74509966
7  -7.06275410  -5.42011765  0.61418019
6  -10.90100567  -4.29454975  0.81857562
7  -10.81112109  -5.39407192  0.73258744
6  -12.14253360  -2.11963938  0.99520723
7  -13.08248050  -1.47862582  1.04787186



