%chk=a.chk
%nprocshared=28 
%mem=48gb 
# wb97xd def2svp scrf=(smd,solvent=acetonitrile) g09default scf=(xqc,maxcycle=64) force  guess=read   nosymm

 Title Card 

-2 1
6  -8.94591380  -0.85899036  1.11277894
6  -8.94488125  0.48613784  1.25103528
6  -8.18785159  -2.14862990  0.97934638
6  -7.01658723  -2.82026698  0.89917434
6  -9.68315683  -2.13878741  0.99380380
6  -10.86614785  -2.81648605  0.93775280
6  -10.19771302  1.25482151  1.34372118
7  -11.22442400  1.74630612  1.40935380
6  -7.67578670  1.26572057  1.32603941
7  -6.64666584  1.73898724  1.37681707
6  -5.73751027  -2.12258928  0.95173181
7  -4.77580936  -1.46670585  0.99891835
6  -6.98358036  -4.25954409  0.74263578
7  -7.06077998  -5.42794521  0.61117943
6  -10.90852723  -4.29191209  0.81973756
7  -10.80542342  -5.42216213  0.73268672
6  -12.15522907  -2.11670881  0.99524936
7  -13.09390715  -1.47142317  1.04684293



