%chk=a.chk
%nprocshared=28 
%mem=48gb 
# wb97xd def2svp scrf=(smd,solvent=acetonitrile) g09default scf=(xqc,maxcycle=64) force  guess=read   nosymm

 Title Card 

-2 1
6  -8.94103126  -0.86640426  1.11116210
6  -8.94108175  0.49692541  1.25154362
6  -8.20076100  -2.13900124  0.98066322
6  -7.01778848  -2.81631204  0.89921638
6  -9.68785952  -2.14541746  0.99375685
6  -10.85636435  -2.81380183  0.93828974
6  -10.18397210  1.25177625  1.34365312
7  -11.23309637  1.75241001  1.41118348
6  -7.67877045  1.27212168  1.32523306
7  -6.65478724  1.72851203  1.37711639
6  -5.73778252  -2.13064650  0.95146289
7  -4.77598589  -1.46960406  0.99803751
6  -6.98194035  -4.27992077  0.74039204
7  -7.05569924  -5.40953899  0.61181191
6  -10.91781402  -4.28740238  0.82171649
7  -10.79784272  -5.41853682  0.73535955
6  -12.14288379  -2.13120087  0.99236228
7  -13.10443373  -1.46413603  1.04584433



