%chk=b.chk
%nprocshared=28 
%mem=48gb 
# wb97xd def2svp scrf=(smd,solvent=acetonitrile) g09default scf=(xqc,maxcycle=64) force  guess=read   nosymm

 Title Card 

-1 2
6  -8.93929300  -0.87062869  1.11171399
6  -8.93844409  0.43130623  1.24639682
6  -8.20367963  -2.13944901  0.97955956
6  -7.06919672  -2.78757419  0.90023545
6  -9.67624128  -2.13998977  0.99234697
6  -10.81103775  -2.79014941  0.93931302
6  -10.18311194  1.17876902  1.33564347
7  -11.17227143  1.72852289  1.40212820
6  -7.69280732  1.17898927  1.31846278
7  -6.70312020  1.72918056  1.37187193
6  -5.79657995  -2.08507894  0.95549698
7  -4.82374432  -1.50510397  1.00105900
6  -7.03830557  -4.23386861  0.74854776
7  -7.05313407  -5.36103001  0.62876477
6  -10.84206306  -4.23918316  0.81724813
7  -10.82724924  -5.36906920  0.72679412
6  -12.08355386  -2.08806596  1.00255714
7  -13.05606156  -1.50775505  1.05066491


