%chk=b.chk
%nprocshared=28 
%mem=48gb 
# wb97xd def2svp scrf=(smd,solvent=acetonitrile) g09default scf=(xqc,maxcycle=64) force  guess=read   nosymm

 Title Card 

-1 2
6  -8.93876343  -0.88049578  1.11048644
6  -8.93930988  0.50543746  1.25254965
6  -8.21125130  -2.13131876  0.98033851
6  -7.00863940  -2.82478158  0.89839088
6  -9.68800240  -2.14599665  0.99364256
6  -10.85106067  -2.81453808  0.93810047
6  -10.19298900  1.25040019  1.34367447
7  -11.21312597  1.74105047  1.40856966
6  -7.67117392  1.26516088  1.32504369
7  -6.67425726  1.72419380  1.37548748
6  -5.74948736  -2.13193352  0.95153247
7  -4.78060235  -1.46938636  0.99897901
6  -6.98366636  -4.24290618  0.74500535
7  -7.05975993  -5.42704734  0.61201535
6  -10.91447479  -4.25954356  0.82248301
7  -10.79966289  -5.42984664  0.73192895
6  -12.14255782  -2.12712522  0.99347319
7  -13.09111011  -1.47150105  1.04710384


