%chk=a.chk
%nprocshared=28 
%mem=48gb 
# wb97xd def2svp scrf=(smd,solvent=acetonitrile) g09default scf=(xqc,maxcycle=64) force  guess=read   nosymm

 Title Card 

-2 1
6  -8.93799866  -0.88557664  1.11250953
6  -8.93769875  0.53830425  1.25506111
6  -8.21393926  -2.12964648  0.98078582
6  -6.97882145  -2.83869957  0.89864765
6  -9.67667206  -2.13966122  0.99369798
6  -10.89157710  -2.83831297  0.93594581
6  -10.20396974  1.26258375  1.34469748
7  -11.22482802  1.74870104  1.41075906
6  -7.67172873  1.27338085  1.32712295
7  -6.65341431  1.73317827  1.37715144
6  -5.74622639  -2.13537417  0.94970593
7  -4.75710023  -1.45599436  0.99859113
6  -6.97943556  -4.27031781  0.73990916
7  -7.05859953  -5.42978375  0.60834812
6  -10.91746732  -4.26453827  0.82292195
7  -10.79813652  -5.45263424  0.73352256
6  -12.15762752  -2.12093345  0.99408754
7  -13.10465382  -1.46485330  1.04533966



