%chk=b.chk
%nprocshared=28 
%mem=48gb 
# wb97xd def2svp scrf=(smd,solvent=acetonitrile) g09default scf=(xqc,maxcycle=64) force  guess=read   nosymm

 Title Card 

-1 2
6  -8.93756851  -0.86442703  1.11391471
6  -8.93716942  0.52387738  1.25365686
6  -8.19296387  -2.14087915  0.98177354
6  -6.99722987  -2.82580085  0.89968402
6  -9.68245871  -2.14270744  0.99303859
6  -10.89343507  -2.84369497  0.93536195
6  -10.21319412  1.26070834  1.34418721
7  -11.23376228  1.75762861  1.41280938
6  -7.67314924  1.26964898  1.32700748
7  -6.63546851  1.74010819  1.37871187
6  -5.73947268  -2.12491278  0.94999313
7  -4.74998615  -1.45725954  0.99763169
6  -6.98609423  -4.29059361  0.73727633
7  -7.05364924  -5.42966987  0.60605733
6  -10.91200226  -4.26539941  0.82330849
7  -10.79536431  -5.46542223  0.73539546
6  -12.17462676  -2.10029471  0.99599989
7  -13.10229971  -1.47108800  1.04299692


