%chk=a.chk
%nprocshared=28 
%mem=48gb 
# wb97xd def2svp scrf=(smd,solvent=acetonitrile) g09default scf=(xqc,maxcycle=64) force  guess=read   nosymm

 Title Card 

-2 1
6  -8.93852221  -0.83918380  1.11463906
6  -8.93615910  0.49052125  1.25075735
6  -8.17290564  -2.15129688  0.98300513
6  -7.02240794  -2.81255138  0.89990635
6  -9.69853080  -2.15088896  0.99207016
6  -10.87623903  -2.82830447  0.93652770
6  -10.24131841  1.26423681  1.34439164
7  -11.22064435  1.75541965  1.41299410
6  -7.66800929  1.26401612  1.32638672
7  -6.62698848  1.74418304  1.37957960
6  -5.72893801  -2.10798468  0.95138936
7  -4.75628130  -1.46630017  0.99666718
6  -6.99579586  -4.29097110  0.73777078
7  -7.04949772  -5.43706743  0.60416131
6  -10.90328765  -4.28427603  0.82204503
7  -10.79478013  -5.45771698  0.73726957
6  -12.15103870  -2.10502010  0.99627443
7  -13.12855024  -1.45699295  1.04296934



