%chk=b.chk
%nprocshared=28 
%mem=48gb 
# wb97xd def2svp scrf=(smd,solvent=acetonitrile) g09default scf=(xqc,maxcycle=64) force  guess=read   nosymm

 Title Card 

-1 2
6  -8.93811492  -0.82886767  1.11389769
6  -8.93689817  0.46019953  1.24770175
6  -8.17264407  -2.14984611  0.98378185
6  -7.04327804  -2.80050942  0.89981344
6  -9.70412286  -2.15435300  0.99218683
6  -10.85077436  -2.80884948  0.93836187
6  -10.23131344  1.24629890  1.34237440
7  -11.21692446  1.75787222  1.41339835
6  -7.66748892  1.25207891  1.32425080
7  -6.64179483  1.73720649  1.37927454
6  -5.73676090  -2.10297816  0.95247024
7  -4.77167199  -1.47940758  0.99609380
6  -7.00597830  -4.28170183  0.74000546
7  -7.04530548  -5.42554427  0.60597950
6  -10.89485226  -4.28716766  0.82215869
7  -10.79410521  -5.43676794  0.73870802
6  -12.12916767  -2.10907506  0.99562979
7  -13.12869881  -1.45876579  1.04271784


