%chk=a.chk
%nprocshared=28 
%mem=48gb 
# wb97xd def2svp scrf=(smd,solvent=acetonitrile) g09default scf=(xqc,maxcycle=64) force  guess=read   nosymm

 Title Card 

-2 1
6  -8.93644335  -0.84818522  1.11205515
6  -8.93845819  0.46583576  1.24734464
6  -8.18223038  -2.14441796  0.98111105
6  -7.06138577  -2.79330662  0.90087491
6  -9.68669584  -2.14521929  0.99382331
6  -10.84510743  -2.80885958  0.93877925
6  -10.21934028  1.23637689  1.34254836
7  -11.18214027  1.73892877  1.40962796
6  -7.69081624  1.23376383  1.32068011
7  -6.66513968  1.72576732  1.37791718
6  -5.74678412  -2.10762881  0.95297375
7  -4.80079941  -1.49600027  0.99646784
6  -7.00638242  -4.25609290  0.74424964
7  -7.04687308  -5.40659782  0.61158172
6  -10.89166544  -4.25913094  0.82409616
7  -10.79626036  -5.41307771  0.73733729
6  -12.10310533  -2.12491026  0.99306600
7  -13.11026691  -1.46742292  1.04427064



