%chk=b.chk
%nprocshared=28 
%mem=48gb 
# wb97xd def2svp scrf=(smd,solvent=acetonitrile) g09default scf=(xqc,maxcycle=64) force  guess=read   nosymm

 Title Card 

-1 2
6  -8.93628115  -0.86053508  1.11312887
6  -8.94062493  0.50806032  1.25126146
6  -8.19271602  -2.13959753  0.98357351
6  -7.02514102  -2.82262903  0.89921551
6  -9.69499200  -2.15077425  0.99307290
6  -10.86325280  -2.81893962  0.93799942
6  -10.21549103  1.24054759  1.34132038
7  -11.21869081  1.76478745  1.41598976
6  -7.67111415  1.25367800  1.32546618
7  -6.65154935  1.73138355  1.37985371
6  -5.72428966  -2.09919289  0.95109092
7  -4.78022828  -1.49012918  0.99405578
6  -7.00031445  -4.26142192  0.74020988
7  -7.04375737  -5.43520665  0.60152572
6  -10.89628337  -4.27464406  0.82540048
7  -10.79280404  -5.44336416  0.74168730
6  -12.14756948  -2.10385343  0.99414902
7  -13.11479477  -1.46834704  1.03980403


