%chk=b.chk
%nprocshared=28 
%mem=48gb 
# wb97xd def2svp scrf=(smd,solvent=acetonitrile) g09default scf=(xqc,maxcycle=64) force  guess=read   nosymm

 Title Card 

-1 2
6  -8.93931857  -0.91571730  1.10781282
6  -8.93844144  0.46477889  1.24950866
6  -8.24277970  -2.11675936  0.98151946
6  -7.04017192  -2.80424459  0.89872189
6  -9.63705089  -2.11734290  0.99440390
6  -10.84008083  -2.80679670  0.93802475
6  -10.18198049  1.18192437  1.33604010
7  -11.16680973  1.72456840  1.40177387
6  -7.69392470  1.18216409  1.31862428
7  -6.70857905  1.72522082  1.37165309
6  -5.79440986  -2.08775986  0.95524530
7  -4.82995938  -1.50786191  1.00068443
6  -7.03510123  -4.23447253  0.74829221
7  -7.05381114  -5.35437544  0.62921990
6  -10.84531010  -4.23986037  0.81742631
7  -10.82659730  -5.36245153  0.72759467
6  -12.08572807  -2.09069013  1.00197409
7  -13.04984061  -1.51050195  1.05028527


