%chk=a.chk
%nprocshared=28 
%mem=48gb 
# wb97xd def2svp scrf=(smd,solvent=acetonitrile) g09default scf=(xqc,maxcycle=64) force  guess=read   nosymm

 Title Card 

-2 1
6  -8.93607557  -0.86096528  1.11397897
6  -8.93851966  0.50887241  1.25079319
6  -8.19923435  -2.13724117  0.98346915
6  -7.01798009  -2.82443983  0.89969866
6  -9.69012808  -2.14919753  0.99304544
6  -10.87225758  -2.81709237  0.93813984
6  -10.21314401  1.23646633  1.34063637
7  -11.22098293  1.76815982  1.41665458
6  -7.67732262  1.24752767  1.32522964
7  -6.64786295  1.73425716  1.38031944
6  -5.73102717  -2.09843751  0.95051121
7  -4.77557788  -1.48967318  0.99409422
6  -7.00183087  -4.27032936  0.73882936
7  -7.04425315  -5.42654971  0.60220073
6  -10.89050110  -4.28386843  0.82485649
7  -10.79437971  -5.43645717  0.74254799
6  -12.13781755  -2.10648788  0.99412359
7  -13.12099943  -1.46472193  1.03967596



