%chk=a.chk
%nprocshared=28 
%mem=48gb 
# wb97xd def2svp scrf=(smd,solvent=acetonitrile) g09default scf=(xqc,maxcycle=64) force  guess=read   nosymm

 Title Card 

-2 1
6  -8.93645144  -0.85322102  1.11257266
6  -8.94035458  0.47700120  1.24722758
6  -8.19362229  -2.13919817  0.98368617
6  -7.04554306  -2.80667497  0.90051413
6  -9.69270368  -2.14938502  0.99303050
6  -10.84764566  -2.80306236  0.93940763
6  -10.21309508  1.20828989  1.33749146
7  -11.20351936  1.76840786  1.41610548
6  -7.68172989  1.21865472  1.32159128
7  -6.66037047  1.73160943  1.38008356
6  -5.75923769  -2.08958430  0.95146808
7  -4.78274200  -1.50164132  0.99460927
6  -7.02234769  -4.26332246  0.74184390
7  -7.04032738  -5.40638549  0.60645804
6  -10.86879947  -4.27386400  0.82501169
7  -10.79413562  -5.41863059  0.74263852
6  -12.11948598  -2.09562796  0.99539446
7  -13.10778312  -1.47354322  1.03967052



