%chk=a.chk
%nprocshared=28 
%mem=48gb 
# wb97xd def2svp scrf=(smd,solvent=acetonitrile) g09default scf=(xqc,maxcycle=64) force  guess=read   nosymm

 Title Card 

-2 1
6  -8.93726688  -0.84766403  1.11134556
6  -8.94364155  0.44919890  1.24405988
6  -8.19166143  -2.14059128  0.98405114
6  -7.06818392  -2.79241303  0.90115474
6  -9.69478573  -2.14909978  0.99308069
6  -10.82622952  -2.79126530  0.94055907
6  -10.21253060  1.18245150  1.33447748
7  -11.18666511  1.76983784  1.41612225
6  -7.68471296  1.19272594  1.31885258
7  -6.67318785  1.72853001  1.37995407
6  -5.78581631  -2.08188685  0.95192827
7  -4.78762063  -1.51285473  0.99472814
6  -7.04186714  -4.25637958  0.74412707
7  -7.03543621  -5.38766996  0.60956999
6  -10.84691983  -4.26424545  0.82572833
7  -10.79443086  -5.40192122  0.74360910
6  -12.10433083  -2.08443740  0.99640093
7  -13.09460687  -1.48249320  1.03905567



