%chk=a.chk
%nprocshared=28 
%mem=48gb 
# wb97xd def2svp scrf=(smd,solvent=acetonitrile) g09default scf=(xqc,maxcycle=64) force  guess=read   nosymm

 Title Card 

-2 1
6  -8.93708260  -0.84102842  1.11174550
6  -8.95073024  0.43749298  1.24297671
6  -8.18822008  -2.14429399  0.98550537
6  -7.07172522  -2.78742739  0.90132153
6  -9.70287641  -2.15238377  0.99263686
6  -10.81740679  -2.78746047  0.94077702
6  -10.21972035  1.17763522  1.33298065
7  -11.18805931  1.77581405  1.41792745
6  -7.67499262  1.18809651  1.31953173
7  -6.66835152  1.73464775  1.38094684
6  -5.79799439  -2.07450809  0.95176846
7  -4.77104726  -1.51425875  0.99397711
6  -7.04611376  -4.26741406  0.74215463
7  -7.03535418  -5.38427310  0.60805258
6  -10.83970677  -4.27208071  0.82526544
7  -10.79234848  -5.40357380  0.74565242
6  -12.11452727  -2.07108568  0.99806766
7  -13.09363698  -1.48407588  1.03751701



