%chk=b.chk
%nprocshared=28 
%mem=48gb 
# wb97xd def2svp scrf=(smd,solvent=acetonitrile) g09default scf=(xqc,maxcycle=64) force  guess=read   nosymm

 Title Card 

-1 2
6  -8.93849047  -0.85839958  1.11378030
6  -8.94643779  0.48435776  1.24794064
6  -8.19779527  -2.14263667  0.98330689
6  -7.04184370  -2.80555443  0.90128831
6  -9.68166920  -2.14155196  0.99404696
6  -10.85648521  -2.81258960  0.93902821
6  -10.20398407  1.21359912  1.33773188
7  -11.20430594  1.77073089  1.41781990
6  -7.68583985  1.22443614  1.32385667
7  -6.66029598  1.73061675  1.38074725
6  -5.77364032  -2.10782949  0.94886829
7  -4.76302177  -1.49058942  0.99373825
6  -7.01708420  -4.27227394  0.73829089
7  -7.03703462  -5.39917339  0.60367785
6  -10.86929130  -4.27531031  0.82699175
7  -10.79686979  -5.41612814  0.74621679
6  -12.13230268  -2.09380235  0.99422029
7  -13.10350242  -1.47807926  1.03725371


