%chk=b.chk
%nprocshared=28 
%mem=48gb 
# wb97xd def2svp scrf=(smd,solvent=acetonitrile) g09default scf=(xqc,maxcycle=64) force  guess=read   nosymm

 Title Card 

-1 2
6  -8.94018466  -0.86781862  1.11180668
6  -8.94536692  0.46888687  1.24508560
6  -8.21747768  -2.13335375  0.98313047
6  -7.04954592  -2.80459106  0.90133192
6  -9.66486621  -2.13107640  0.99523092
6  -10.85466727  -2.80967870  0.93972827
6  -10.19852060  1.18737250  1.33523844
7  -11.17880688  1.76987731  1.41752254
6  -7.69398220  1.19875971  1.32084379
7  -6.68657569  1.71909816  1.38008438
6  -5.79527659  -2.10179501  0.94892485
7  -4.78223136  -1.50907901  0.99350136
6  -7.03537852  -4.24338812  0.74291073
7  -7.03175051  -5.38559781  0.60644861
6  -10.84738875  -4.25061823  0.82969418
7  -10.79634838  -5.39685926  0.74752284
6  -12.10234564  -2.09434810  0.99326944
7  -13.08918049  -1.48596812  1.03652991


