%chk=b.chk
%nprocshared=28 
%mem=48gb 
# wb97xd def2svp scrf=(smd,solvent=acetonitrile) g09default scf=(xqc,maxcycle=64) force  guess=read   nosymm

 Title Card 

-1 2
6  -8.94116369  -0.88081114  1.11171783
6  -8.94629896  0.47960695  1.24569714
6  -8.22870923  -2.12811354  0.98307320
6  -7.04143614  -2.80945859  0.90147331
6  -9.65658437  -2.12458162  0.99608586
6  -10.86298341  -2.81338589  0.93988972
6  -10.19040753  1.18728314  1.33520691
7  -11.17620741  1.77374608  1.41913443
6  -7.70406833  1.19784077  1.32166426
7  -6.68813463  1.71669534  1.38077105
6  -5.79500421  -2.10964712  0.94739205
7  -4.78499273  -1.50956884  0.99229742
6  -7.03369823  -4.23993826  0.74159842
7  -7.02777604  -5.38286792  0.60419368
6  -10.84613859  -4.24564297  0.83217761
7  -10.79755981  -5.39468516  0.75037227
6  -12.10093152  -2.09918878  0.99143567
7  -13.08779944  -1.48746011  1.03462407


