%chk=a.chk
%nprocshared=28 
%mem=48gb 
# wb97xd def2svp scrf=(smd,solvent=acetonitrile) g09default scf=(xqc,maxcycle=64) force  guess=read   nosymm

 Title Card 

-2 1
6  -8.94251243  -0.90931103  1.10882894
6  -8.94674132  0.48288514  1.24532852
6  -8.24423150  -2.11639588  0.98195127
6  -7.04358826  -2.80877988  0.90177288
6  -9.63974154  -2.11031823  0.99766159
6  -10.86088068  -2.81245369  0.94027251
6  -10.17024888  1.17769476  1.33561390
7  -11.16608865  1.77099064  1.41785268
6  -7.72622878  1.18589937  1.31899158
7  -6.69754076  1.71032490  1.38042551
6  -5.80501003  -2.12011639  0.94723529
7  -4.80393112  -1.51567394  0.99258288
6  -7.03482977  -4.22258293  0.74408295
7  -7.02595572  -5.37067077  0.60776342
6  -10.84275117  -4.22710600  0.83432897
7  -10.80105090  -5.38009344  0.74980539
6  -12.08676209  -2.10934429  0.98944867
7  -13.07180056  -1.49512593  1.03485799



