%chk=a.chk
%nprocshared=28 
%mem=48gb 
# wb97xd def2svp scrf=(smd,solvent=acetonitrile) g09default scf=(xqc,maxcycle=64) force  guess=read   nosymm

 Title Card 

-2 1
6  -8.94272167  -0.91179716  1.10816811
6  -8.94986559  0.47325466  1.24478438
6  -8.25291030  -2.11118511  0.98409263
6  -7.03570409  -2.81265677  0.90046155
6  -9.64267763  -2.11086121  0.99754553
6  -10.85572660  -2.81184853  0.94045977
6  -10.17323292  1.18485769  1.33631402
7  -11.17028993  1.77400584  1.41908658
6  -7.72361752  1.18628396  1.32007185
7  -6.69031006  1.71537017  1.38135922
6  -5.79977372  -2.11559077  0.94773429
7  -4.80608620  -1.51983554  0.99096723
6  -7.03399217  -4.21913924  0.74297009
7  -7.02453524  -5.37789688  0.60490012
6  -10.84345797  -4.22423031  0.83523478
7  -10.79998973  -5.38694567  0.75170708
6  -12.08938905  -2.10744651  0.98975143
7  -13.07561377  -1.49451621  1.03319626



