%chk=b.chk
%nprocshared=28 
%mem=48gb 
# wb97xd def2svp scrf=(smd,solvent=acetonitrile) g09default scf=(xqc,maxcycle=64) force  guess=read   nosymm

 Title Card 

-1 2
6  -8.94203210  -0.90282220  1.11026810
6  -8.94798068  0.48179278  1.24632465
6  -8.24598671  -2.11543987  0.98346060
6  -7.03103304  -2.81560282  0.90060475
6  -9.64505122  -2.11354779  0.99739580
6  -10.86236219  -2.81617110  0.93986584
6  -10.17238012  1.19872505  1.33768202
7  -11.18183013  1.77147378  1.41860422
6  -7.72297897  1.20384034  1.32169993
7  -6.68052403  1.71750994  1.38116998
6  -5.78261155  -2.12029835  0.94736819
7  -4.80067344  -1.51096276  0.99136134
6  -7.02213895  -4.22682456  0.74178808
7  -7.02739871  -5.38920573  0.60317671
6  -10.85744968  -4.23394071  0.83399018
7  -10.80201396  -5.39584894  0.75033772
6  -12.10434965  -2.11136560  0.98953203
7  -13.08109926  -1.49148924  1.03417473


