%chk=b.chk
%nprocshared=28 
%mem=48gb 
# wb97xd def2svp scrf=(smd,solvent=acetonitrile) g09default scf=(xqc,maxcycle=64) force  guess=read   nosymm

 Title Card 

-1 2
6  -8.94433148  -0.90815054  1.10874753
6  -8.94867740  0.47569590  1.24519392
6  -8.24897885  -2.11512333  0.98373491
6  -7.03771451  -2.81209801  0.90057028
6  -9.64351414  -2.11248505  0.99739289
6  -10.85676931  -2.81165129  0.94048871
6  -10.17101265  1.18913837  1.33698348
7  -11.17423987  1.77478521  1.41930071
6  -7.72464245  1.18925351  1.32057897
7  -6.68819838  1.71604927  1.38149322
6  -5.79443724  -2.11674647  0.94772167
7  -4.80579401  -1.51832557  0.99065129
6  -7.02959562  -4.22112296  0.74204832
7  -7.02539165  -5.38071947  0.60410982
6  -10.84706383  -4.22797652  0.83520102
7  -10.80012363  -5.38771967  0.75211402
6  -12.09417943  -2.10806760  0.98968700
7  -13.07522975  -1.49491341  1.03278714


