%chk=b.chk
%nprocshared=28 
%mem=48gb 
# wb97xd def2svp scrf=(smd,solvent=acetonitrile) g09default scf=(xqc,maxcycle=64) force  guess=read   nosymm

 Title Card 

-1 2
6  -8.94943416  -0.91724253  1.10602840
6  -8.95072928  0.47049549  1.24514732
6  -8.25255462  -2.11515166  0.98525950
6  -7.04561332  -2.80834441  0.89934950
6  -9.64339599  -2.11367915  0.99696371
6  -10.85041660  -2.80796466  0.94128854
6  -10.17110588  1.18829236  1.33840693
7  -11.16898145  1.77985794  1.42079718
6  -7.71941188  1.17025532  1.32044127
7  -6.69554742  1.71773220  1.38264711
6  -5.81156338  -2.11025354  0.94865129
7  -4.80649717  -1.52723486  0.98807870
6  -7.03387394  -4.21832740  0.73913260
7  -7.02471002  -5.37292702  0.60292163
6  -10.83748936  -4.22299405  0.83741507
7  -10.79503882  -5.38122116  0.75724969
6  -12.08055069  -2.10282493  0.99043922
7  -13.07298002  -1.49864541  1.02858727


