%chk=b.chk
%nprocshared=28 
%mem=48gb 
# wb97xd def2svp scrf=(smd,solvent=acetonitrile) g09default scf=(xqc,maxcycle=64) force  guess=read   nosymm

 Title Card 

-1 2
6  -8.95141549  -0.91708849  1.10589345
6  -8.95113662  0.47092567  1.24587875
6  -8.25358778  -2.11562821  0.98547709
6  -7.04629367  -2.80857926  0.89869943
6  -9.64368079  -2.11525739  0.99674747
6  -10.85059828  -2.80864371  0.94152996
6  -10.16908786  1.19406663  1.34008949
7  -11.16975048  1.78137459  1.42145482
6  -7.71789837  1.16745249  1.32111058
7  -6.69598531  1.71879147  1.38330776
6  -5.81276359  -2.10941258  0.94868920
7  -4.80670698  -1.52900072  0.98665848
6  -7.03108790  -4.21860608  0.73688732
7  -7.02511975  -5.37313990  0.60118874
6  -10.83862236  -4.22327222  0.83862858
7  -10.79341792  -5.38144278  0.75992406
6  -12.07980047  -2.10261550  0.99028826
7  -13.07294034  -1.50010145  1.02635149


