%chk=a.chk
%nprocshared=28 
%mem=48gb 
# wb97xd def2svp scrf=(smd,solvent=acetonitrile) g09default scf=(xqc,maxcycle=64) force  guess=read   nosymm

 Title Card 

-2 1
6  -8.95112656  -0.91615026  1.10638047
6  -8.95018823  0.47151368  1.24705889
6  -8.25375998  -2.11475160  0.98488095
6  -7.04625977  -2.80834471  0.89811501
6  -9.64400790  -2.11539416  0.99673580
6  -10.85106709  -2.80992815  0.94157969
6  -10.16794472  1.19545076  1.34106997
7  -11.16940873  1.77992564  1.42111700
6  -7.71667791  1.16851271  1.32140245
7  -6.69526198  1.71919358  1.38342731
6  -5.81240903  -2.10897504  0.94828482
7  -4.80657239  -1.52806331  0.98655244
6  -7.03105441  -4.21872209  0.73632040
7  -7.02632485  -5.37307028  0.60063776
6  -10.84045572  -4.22437838  0.83891316
7  -10.79367385  -5.38308698  0.76050827
6  -12.08037486  -2.10340017  0.98997881
7  -13.07332598  -1.50050868  1.02584172



