%chk=a.chk
%nprocshared=28 
%mem=48gb 
# wb97xd def2svp scrf=(smd,solvent=acetonitrile) g09default scf=(xqc,maxcycle=64) force  guess=read   nosymm

 Title Card 

-2 1
6  -8.95187163  -0.91553305  1.10709212
6  -8.94829213  0.47108318  1.24930377
6  -8.25420947  -2.11419754  0.98389251
6  -7.04754077  -2.80678756  0.89663121
6  -9.64497123  -2.11558398  0.99666115
6  -10.85069915  -2.81098263  0.94186779
6  -10.16562501  1.19612987  1.34287619
7  -11.16805318  1.77891160  1.42102911
6  -7.71408432  1.16772073  1.32232049
7  -6.69385196  1.72046511  1.38383015
6  -5.81351900  -2.10713608  0.94731087
7  -4.80705993  -1.52747369  0.98598284
6  -7.03266298  -4.21762057  0.73482591
7  -7.02854189  -5.37173173  0.59911819
6  -10.84116666  -4.22633252  0.83998599
7  -10.79391439  -5.38491756  0.76261246
6  -12.08029491  -2.10431094  0.98934787
7  -13.07353530  -1.50188009  1.02411629



