%chk=a.chk
%nprocshared=28 
%mem=48gb 
# wb97xd def2svp scrf=(smd,solvent=acetonitrile) g09default scf=(xqc,maxcycle=64) force  guess=read   nosymm

 Title Card 

-2 1
6  -8.95184585  -0.91542131  1.10728210
6  -8.94776343  0.47099573  1.24976801
6  -8.25423673  -2.11409561  0.98364358
6  -7.04769336  -2.80641550  0.89630949
6  -9.64506724  -2.11545484  0.99666558
6  -10.85065000  -2.81120906  0.94189728
6  -10.16516360  1.19580974  1.34315713
7  -11.16772089  1.77841503  1.42093368
6  -7.71370103  1.16795537  1.32252520
7  -6.69342916  1.72061249  1.38382781
6  -5.81353545  -2.10693907  0.94706180
7  -4.80731609  -1.52705032  0.98600366
6  -7.03318242  -4.21723069  0.73467445
7  -7.02913940  -5.37141546  0.59896286
6  -10.84123016  -4.22666335  0.84011748
7  -10.79427649  -5.38523185  0.76281560
6  -12.08046307  -2.10471634  0.98921196
7  -13.07347956  -1.50212239  1.02394725



