%chk=a.chk
%nprocshared=28 
%mem=48gb 
# wb97xd def2svp scrf=(smd,solvent=acetonitrile) g09default scf=(xqc,maxcycle=64) force  guess=read   nosymm

 Title Card 

-2 1
6  -8.95158417  -0.91539513  1.10747531
6  -8.94719895  0.47107801  1.25020222
6  -8.25428478  -2.11393347  0.98344041
6  -7.04760762  -2.80619040  0.89597912
6  -9.64510095  -2.11529298  0.99667341
6  -10.85070895  -2.81142578  0.94188741
6  -10.16490063  1.19519643  1.34331888
7  -11.16752320  1.77773994  1.42079969
6  -7.71335618  1.16846964  1.32274830
7  -6.69280642  1.72076215  1.38375147
6  -5.81337641  -2.10681054  0.94681101
7  -4.80747902  -1.52633060  0.98613647
6  -7.03374674  -4.21695110  0.73461992
7  -7.02986524  -5.37111272  0.59895685
6  -10.84118297  -4.22695211  0.84012776
7  -10.79489028  -5.38556458  0.76279481
6  -12.08072027  -2.10522246  0.98912409
7  -13.07356112  -1.50224173  1.02395780



