%chk=a.chk
%nprocshared=28 
%mem=48gb 
# wb97xd def2svp scrf=(smd,solvent=acetonitrile) g09default scf=(xqc,maxcycle=64) force  guess=read   nosymm

 Title Card 

-2 1
6  -8.95079054  -0.91522290  1.10778406
6  -8.94612701  0.47089179  1.25083639
6  -8.25402421  -2.11382565  0.98314477
6  -7.04754041  -2.80566355  0.89540464
6  -9.64505647  -2.11495134  0.99668693
6  -10.85033291  -2.81147477  0.94179343
6  -10.16471419  1.19343488  1.34338947
7  -11.16737622  1.77582210  1.42038519
6  -7.71269997  1.16940593  1.32307256
7  -6.69172441  1.72097518  1.38341885
6  -5.81312630  -2.10640099  0.94646793
7  -4.80802196  -1.52466877  0.98663959
6  -7.03489649  -4.21642339  0.73476227
7  -7.03168962  -5.37058213  0.59946719
6  -10.84076418  -4.22714118  0.83978752
7  -10.79649949  -5.38577796  0.76215119
6  -12.08102049  -2.10603111  0.98917843
7  -13.07348905  -1.50254357  1.02443449



