%chk=b.chk
%nprocshared=28 
%mem=48gb 
# wb97xd def2svp scrf=(smd,solvent=acetonitrile) g09default scf=(xqc,maxcycle=64) force  guess=read   nosymm

 Title Card 

-1 2
6  -8.94950322  -0.91504329  1.10838194
6  -8.94418087  0.47105414  1.25214979
6  -8.25366075  -2.11350246  0.98261168
6  -7.04700854  -2.80497506  0.89427533
6  -9.64475124  -2.11433160  0.99670577
6  -10.84989959  -2.81178574  0.94161744
6  -10.16405268  1.19119775  1.34375950
7  -11.16759050  1.77211606  1.41965035
6  -7.71123028  1.17089712  1.32372590
7  -6.68965770  1.72161412  1.38286450
6  -5.81275711  -2.10550073  0.94587175
7  -4.80887805  -1.52149257  0.98743684
6  -7.03641320  -4.21570974  0.73470916
7  -7.03539824  -5.36994972  0.60026514
6  -10.84048173  -4.22759238  0.83916789
7  -10.79945036  -5.38638071  0.76110672
6  -12.08137495  -2.10745644  0.98933463
7  -13.07360489  -1.50333617  1.02517058


