%chk=b.chk
%nprocshared=28 
%mem=48gb 
# wb97xd def2svp scrf=(smd,solvent=acetonitrile) g09default scf=(xqc,maxcycle=64) force  guess=read   nosymm

 Title Card 

-1 2
6  -8.93910142  -0.97887741  1.10421609
6  -8.93842752  0.49428830  1.25116502
6  -8.29759096  -2.08421683  0.98298219
6  -7.01510359  -2.81882398  0.89811894
6  -9.58236763  -2.08539296  0.99803479
6  -10.86496722  -2.82112043  0.93709556
6  -10.14344331  1.17695136  1.33589591
7  -11.17640257  1.72620953  1.40213828
6  -7.73253776  1.17723797  1.31738047
7  -6.69890611  1.72683103  1.37235660
6  -5.81785989  -2.11896958  0.95272040
7  -4.82460544  -1.50068569  1.00089410
6  -7.02036544  -4.19850420  0.75125849
7  -7.05704076  -5.36386422  0.62797419
6  -10.86024563  -4.20443304  0.82051986
7  -10.82342818  -5.37175033  0.72716191
6  -12.06226035  -2.12173006  0.99805760
7  -13.05524123  -1.50332745  1.05083465


