%chk=a.chk
%nprocshared=28 
%mem=48gb 
# wb97xd def2svp scrf=(smd,solvent=acetonitrile) g09default scf=(xqc,maxcycle=64) force  guess=read   nosymm

 Title Card 

-2 1
6  -8.93705748  -0.89004999  1.11258493
6  -8.93832456  0.48054995  1.25057150
6  -8.21866350  -2.12862885  0.98040541
6  -7.02580935  -2.81204155  0.89914437
6  -9.66295159  -2.13277033  0.99272584
6  -10.85518767  -2.81439081  0.93702625
6  -10.16971883  1.17984217  1.33520989
7  -11.19435891  1.73940828  1.40450035
6  -7.70367251  1.18171491  1.31946287
7  -6.68352785  1.73871201  1.37324836
6  -5.80169328  -2.09555580  0.95360693
7  -4.80366156  -1.49155129  1.00103933
6  -7.03159248  -4.22063311  0.74844231
7  -7.05454258  -5.38849422  0.62344914
6  -10.84760756  -4.23766773  0.81781739
7  -10.82585826  -5.38712513  0.72733586
6  -12.08020314  -2.09684913  1.00199743
7  -13.07546401  -1.49464750  1.05023680



