%chk=b.chk
%nprocshared=28 
%mem=48gb 
# wb97xd def2svp scrf=(smd,solvent=acetonitrile) g09default scf=(xqc,maxcycle=64)  nosymm

 Title Card 

-1 2
6  -8.93932000  -0.91292000  1.10763000
6  -8.93844200  0.45961100  1.24924000
6  -8.24040300  -2.11829400  0.98177600
6  -7.04457200  -2.80161200  0.89873600
6  -9.63944600  -2.11885100  0.99414700
6  -10.83568700  -2.80418300  0.93820300
6  -10.16876700  1.17172700  1.33474100
7  -11.18124000  1.73330300  1.40274900
6  -7.70715800  1.17192900  1.31770100
7  -6.69413200  1.73397200  1.37240400
6  -5.80992500  -2.09401600  0.95480500
7  -4.81506500  -1.49972300  1.00141600
6  -7.03737500  -4.21800800  0.75021700
7  -7.05342100  -5.37118700  0.62757700
6  -10.84301700  -4.22329700  0.81861600
7  -10.82697300  -5.37927700  0.72612900
6  -12.07021300  -2.09699700  1.00169700
7  -13.06473900  -1.50235500  1.05102100


