%chk=b.chk
%nprocshared=56 
%mem=96gb 
# def2svp wb97xd scrf=(smd,solvent=acetonitrile) g09default scf=(xqc,maxcycle=64) force  guess=read   nosymm

 Title Card 

-1 1
17  -9.84130600  7.49936800  10.36145200
6  -8.30686100  4.25664000  12.24131900
6  -9.07785900  3.94013600  11.10496800
6  -10.01085000  2.88925500  11.19179500
6  -10.18439500  2.19020500  12.37955300
6  -9.42552000  2.52464000  13.50026200
6  -8.48160600  3.55338800  13.42579500
1  -7.57111700  5.06166000  12.19880800
1  -10.59977500  2.62823800  10.30879500
1  -10.91249200  1.37826900  12.43344000
1  -9.55900600  1.97632000  14.43491400
1  -7.88272600  3.80858600  14.30295200
6  -8.95460600  4.65516800  9.85334400
6  -8.11294400  5.71377400  9.59698000
1  -9.60954400  4.32085300  9.04295300
1  -8.04156900  6.11588800  8.58588400
1  -7.35822600  6.04070200  10.31392700
8  -0.96995200  -1.76515900  7.44197600
8  -8.45093400  -1.32201800  7.44972300
8  -7.08996400  1.36973400  10.50608700
8  -2.30937700  -4.37757300  10.57957300
74  -3.42009100  0.73591500  6.53423100
74  -6.02457400  -3.81490200  6.61266000
74  -3.65152500  0.92306100  11.37477600
74  -5.75941800  -3.87022100  11.44594900
74  -2.48244100  -2.52453200  6.38397300
74  -6.93629600  -0.55616000  6.36105800
74  -6.80617800  -0.25055600  11.59203300
74  -2.59684400  -2.69377500  11.62066800
8  -3.20951300  1.93564900  5.36023400
8  -6.13398600  -5.07404500  5.47090000
8  -2.71431600  1.75679700  12.52781200
8  -6.69012600  -4.66751400  12.62936600
8  -2.68153700  -0.85794900  5.57027400
8  -6.73200300  -2.27906000  5.60958100
8  -5.33011300  0.58680400  12.38544100
8  -4.06581500  -3.52705100  12.43330600
8  0.28306000  -0.00507800  9.28306300
8  -9.70445200  -3.01390000  9.34517900
8  -6.45518800  3.40910100  8.67417300
8  -2.97342900  -6.43758300  8.73877000
8  -1.78795000  0.79812600  7.48132500
8  -7.63992600  -3.88812900  7.55340900
8  -4.54748800  2.25451900  10.43425300
8  -4.86137600  -5.23946100  10.53228700
8  -1.65514800  -3.47470500  5.23397500
8  -7.81230700  0.25948400  5.16325700
8  -8.02951300  -0.18101200  12.77486500
8  -1.34969800  -2.79003900  12.78009800
74  -1.27013800  -0.54197700  8.82657600
74  -8.15269900  -2.48625400  8.87061200
74  -5.96347300  1.83822800  9.06731100
74  -3.45366300  -4.86118600  9.17921300
8  -4.24258700  -3.07304100  6.08684300
8  -5.17106800  -0.05178100  6.03580200
8  -6.16739900  -1.98987900  11.90873900
8  -3.21494900  -0.95795300  11.91515800
8  -4.39932900  1.59133900  7.86770900
8  -5.01324200  -4.64975000  7.94912800
8  -2.36594700  0.59173900  10.06188700
8  -7.04691400  -3.59743100  10.12283400
8  -2.56989200  -3.86319000  7.87043000
8  -6.86136700  0.78881200  7.81250800
8  -7.84796800  -1.15912000  10.15324800
8  -1.57339600  -1.84426500  10.14371400
8  -3.33067300  -1.13488800  8.00014300
8  -6.09022900  -1.93736800  8.02475800
8  -5.18443200  -0.15106200  9.96365400
8  -4.21300800  -2.85623400  9.99960000
19  -3.24757200  -6.06680800  5.70404300
19  -0.20051500  0.01622200  12.31146600
19  -9.21391800  -2.91795800  12.36453300
23  -4.70558000  -1.51646200  8.99455300

-c -h -mn -co -ag -ni -ni 0
def2svp
****
-n -o -f -cl 0
6-31+g(d)
****
-ce 0
sdd
****

-ce 0
sdd



