%chk=a.chk
%nprocshared=56 
%mem=96gb 
# def2svp wb97xd scrf=(smd,solvent=acetonitrile) g09default scf=(xqc,maxcycle=64) force  guess=read   nosymm

 Title Card 

-1 1
17  -9.95343481  7.78427091  10.43589492
6  -8.31027299  4.24538922  12.23767993
6  -9.06066095  3.91763532  11.09243456
6  -10.00563728  2.88373843  11.20061738
6  -10.18871228  2.19262631  12.39295090
6  -9.42947784  2.52088019  13.51688230
6  -8.49062989  3.55142140  13.43162854
1  -7.57782553  5.05365951  12.19933684
1  -10.59893900  2.62287154  10.31963287
1  -10.91668238  1.37922214  12.43821660
1  -9.55746064  1.96694550  14.44987442
1  -7.88626180  3.81221960  14.30398569
6  -8.91576647  4.61480155  9.81356150
6  -8.08346884  5.64133444  9.56343510
1  -9.59911315  4.29519366  9.01933606
1  -8.06151168  6.12186369  8.58521112
1  -7.38695114  6.02584457  10.31117296
8  -1.01641262  -1.76453858  7.46343348
8  -8.40376133  -1.32385215  7.46749313
8  -7.05976523  1.33572169  10.48830248
8  -2.33705040  -4.34287866  10.55962751
74  -3.43286097  0.74570488  6.50370245
74  -6.00926598  -3.82303608  6.58836112
74  -3.63638121  0.91511051  11.40239491
74  -5.77711254  -3.86547093  11.46888303
74  -2.47032595  -2.54573844  6.38123769
74  -6.95070445  -0.52996276  6.35149192
74  -6.83193821  -0.25375079  11.59559559
74  -2.56994978  -2.69183660  11.62791942
8  -3.20687800  1.95328526  5.34642458
8  -6.13730546  -5.08731904  5.46055669
8  -2.70466555  1.76889360  12.53702898
8  -6.70057557  -4.67864060  12.63784689
8  -2.69910868  -0.86552716  5.59694271
8  -6.71616270  -2.26758128  5.63698220
8  -5.32340198  0.56340717  12.36249511
8  -4.06860420  -3.50805677  12.40673761
8  0.29736614  -0.00746686  9.28340483
8  -9.72045137  -3.01126180  9.34366216
8  -6.41289808  3.41456487  8.63178240
8  -2.96198906  -6.44703593  8.73902738
8  -1.81703321  0.78076236  7.49047444
8  -7.61031446  -3.87182760  7.56611105
8  -4.54380769  2.21575580  10.42139947
8  -4.86398735  -5.20814457  10.51916971
8  -1.65021139  -3.47797967  5.21787018
8  -7.81838926  0.27147646  5.14371156
8  -8.03667016  -0.18589398  12.78936823
8  -1.34192839  -2.79168131  12.79705887
74  -1.26573971  -0.51624666  8.84513700
74  -8.15982519  -2.50987337  8.88609807
74  -5.93999150  1.85493568  9.04579311
74  -3.46843465  -4.88168274  9.16233354
8  -4.24003881  -3.09040958  6.07749876
8  -5.17646009  -0.03409952  6.02311827
8  -6.18480347  -1.99910599  11.91788160
8  -3.19352795  -0.94993328  11.92294085
8  -4.40119198  1.60017082  7.85232059
8  -5.00271846  -4.66670674  7.93613499
8  -2.34522771  0.59492239  10.07393828
8  -7.06572560  -3.60194152  10.13387226
8  -2.57686293  -3.86697399  7.85983093
8  -6.85293727  0.78773127  7.80368782
8  -7.84714157  -1.16953485  10.16233330
8  -1.57342453  -1.83834783  10.15251412
8  -3.39295802  -1.12328896  8.01582964
8  -6.02727066  -1.95629858  8.04592293
8  -5.12910944  -0.19965526  9.95377676
8  -4.25980647  -2.81908751  9.98205162
19  -3.23781303  -6.10197768  5.67841513
19  -0.16677777  0.03125041  12.33690896
19  -9.25102600  -2.92724255  12.39406591
23  -4.70461340  -1.52013202  8.99512409

-c -h -mn -co -ag -ni -ni 0
def2svp
****
-n -o -f -cl 0
6-31+g(d)
****
-ce 0
sdd
****

-ce 0
sdd



