%chk=a.chk
%nprocshared=56 
%mem=96gb 
# def2svp wb97xd scrf=(smd,solvent=acetonitrile) g09default scf=(xqc,maxcycle=64) force  guess=read   nosymm

 Title Card 

-1 1
17  -9.96213164  7.80959049  10.44272794
6  -8.30941815  4.24350097  12.23685388
6  -9.05981364  3.91582834  11.09220492
6  -10.00528465  2.88141492  11.19975457
6  -10.18918126  2.19161324  12.39404994
6  -9.43010814  2.52096131  13.51707245
6  -8.49036957  3.55135833  13.43166089
1  -7.57753784  5.05285128  12.19922941
1  -10.59949928  2.62094690  10.32041553
1  -10.91809721  1.37936316  12.43965309
1  -9.55728014  1.96721032  14.45034876
1  -7.88707670  3.81330976  14.30427082
6  -8.91695350  4.61710905  9.81398903
6  -8.08812235  5.64221631  9.56376686
1  -9.59621636  4.28960734  9.01711399
1  -8.06197358  6.12059634  8.58268122
1  -7.38648793  6.02316396  10.31070544
8  -1.01568230  -1.76540632  7.46396998
8  -8.40464607  -1.32293366  7.46804496
8  -7.06039347  1.33673961  10.48696150
8  -2.33564577  -4.34338259  10.55887550
74  -3.43209344  0.74430383  6.50247579
74  -6.00914742  -3.82266237  6.58786598
74  -3.63681243  0.91380782  11.40296320
74  -5.77607290  -3.86469827  11.46821445
74  -2.46999325  -2.54636106  6.38120159
74  -6.95044800  -0.53051602  6.35145385
74  -6.83113543  -0.25370621  11.59466757
74  -2.57119489  -2.69220731  11.62683623
8  -3.20619722  1.95223744  5.34532490
8  -6.13790796  -5.08598749  5.45989722
8  -2.70551524  1.76917094  12.53818234
8  -6.70013062  -4.67950930  12.63916696
8  -2.69969234  -0.86578245  5.59387637
8  -6.71595078  -2.26749655  5.63380908
8  -5.32344121  0.56273689  12.36540792
8  -4.06851612  -3.50754077  12.40938366
8  0.29523149  -0.00789023  9.28161576
8  -9.71832019  -3.01066700  9.34139801
8  -6.40823152  3.41460373  8.62940678
8  -2.96200384  -6.44695629  8.74017922
8  -1.81640068  0.78335018  7.48971135
8  -7.61045020  -3.87458821  7.56559833
8  -4.54114147  2.21695019  10.42172052
8  -4.86581075  -5.21052681  10.51950611
8  -1.65008564  -3.47594278  5.21949416
8  -7.81867659  0.27058929  5.14524958
8  -8.03609763  -0.18485272  12.78808055
8  -1.34178413  -2.79317990  12.79691538
74  -1.26607141  -0.51510150  8.84575969
74  -8.15946187  -2.51090722  8.88634044
74  -5.93684952  1.85294699  9.04555858
74  -3.47008833  -4.88040737  9.16285726
8  -4.23924745  -3.09241470  6.07528901
8  -5.17756156  -0.03151905  6.02027275
8  -6.18719859  -1.99998910  11.92039706
8  -3.19055406  -0.94927320  11.92544476
8  -4.40017315  1.60118328  7.84993670
8  -5.00256655  -4.66994303  7.93362140
8  -2.34290028  0.59681757  10.07627406
8  -7.06783634  -3.60388743  10.13631808
8  -2.57755679  -3.86850497  7.85871758
8  -6.85167503  0.78873312  7.80292212
8  -7.84772749  -1.17085075  10.16323255
8  -1.57260974  -1.83708722  10.15349644
8  -3.39034364  -1.12363092  8.01459695
8  -6.02982794  -1.95640606  8.04499173
8  -5.13065500  -0.19836460  9.95492053
8  -4.25833941  -2.82059640  9.98256073
19  -3.23685307  -6.10585090  5.67553827
19  -0.16316123  0.03296013  12.33969719
19  -9.25504839  -2.92803701  12.39742804
23  -4.70453117  -1.52061626  8.99575254

-c -h -mn -co -ag -ni -ni 0
def2svp
****
-n -o -f -cl 0
6-31+g(d)
****
-ce 0
sdd
****

-ce 0
sdd



