%chk=b.chk
%nprocshared=56 
%mem=96gb 
# def2svp wb97xd scrf=(smd,solvent=acetonitrile) g09default scf=(xqc,maxcycle=64) force  guess=read   nosymm

 Title Card 

-1 1
17  -9.96654009  7.82423162  10.44674102
6  -8.30885381  4.24218854  12.23650415
6  -9.05992479  3.91528979  11.09229498
6  -10.00470573  2.88002669  11.19940218
6  -10.18937290  2.19077869  12.39395342
6  -9.43009520  2.52123414  13.51719447
6  -8.49020953  3.55099306  13.43109583
1  -7.57707139  5.05230162  12.19899755
1  -10.60010706  2.61928852  10.32055247
1  -10.91919636  1.37945251  12.44086205
1  -9.55729905  1.96773029  14.45048711
1  -7.88761882  3.81415720  14.30460312
6  -8.92037559  4.61747348  9.81462053
6  -8.09094288  5.64639024  9.56460992
1  -9.59371992  4.28600135  9.01653442
1  -8.06212213  6.11916437  8.58148820
1  -7.38630940  6.02147089  10.30972924
8  -1.01458323  -1.76567571  7.46386233
8  -8.40594900  -1.32262951  7.46813291
8  -7.06089430  1.33778014  10.48659277
8  -2.33453229  -4.34429755  10.55878235
74  -3.43094417  0.74385209  6.50136822
74  -6.00959203  -3.82268789  6.58756833
74  -3.63662045  0.91407209  11.40381522
74  -5.77634835  -3.86542703  11.46890943
74  -2.47027553  -2.54584516  6.38159280
74  -6.95006457  -0.53130357  6.35121495
74  -6.83055691  -0.25330583  11.59447780
74  -2.57128376  -2.69263673  11.62726374
8  -3.20555537  1.95102906  5.34440237
8  -6.13850722  -5.08513809  5.45888056
8  -2.70654715  1.76913726  12.53914501
8  -6.69893327  -4.67969310  12.63966199
8  -2.69971618  -0.86602604  5.59152789
8  -6.71603072  -2.26775438  5.63154640
8  -5.32354270  0.56269896  12.36739017
8  -4.06837176  -3.50754069  12.41118952
8  0.29486005  -0.00754973  9.28048609
8  -9.71780580  -3.01086473  9.33989503
8  -6.40509856  3.41380132  8.62886461
8  -2.96243389  -6.44641128  8.74131785
8  -1.81540397  0.78489293  7.48907666
8  -7.61098106  -3.87635194  7.56503643
8  -4.53939396  2.21802922  10.42224598
8  -4.86673446  -5.21223391  10.51997917
8  -1.64906223  -3.47514856  5.22004830
8  -7.81930427  0.26987515  5.14655661
8  -8.03585464  -0.18365295  12.78689304
8  -1.34217088  -2.79458127  12.79599584
74  -1.26696601  -0.51511088  8.84530303
74  -8.15864172  -2.51082031  8.88572249
74  -5.93575861  1.85309175  9.04528170
74  -3.47036851  -4.88066782  9.16316824
8  -4.23875322  -3.09322433  6.07408465
8  -5.17814822  -0.03029728  6.01861358
8  -6.18823936  -2.00034483  11.92167437
8  -3.18913841  -0.94915794  11.92690364
8  -4.39911212  1.60117652  7.84876284
8  -5.00280411  -4.67159280  7.93217129
8  -2.34193549  0.59799100  10.07760055
8  -7.06862440  -3.60516164  10.13766092
8  -2.57809398  -3.86936779  7.85833474
8  -6.85064379  0.78911184  7.80266251
8  -7.84788260  -1.17165472  10.16347016
8  -1.57235971  -1.83627898  10.15385285
8  -3.38949603  -1.12462371  8.01490204
8  -6.03068673  -1.95552168  8.04520028
8  -5.13211249  -0.19826766  9.95460807
8  -4.25700996  -2.82103486  9.98221420
19  -3.23630113  -6.10822396  5.67379802
19  -0.16098317  0.03403198  12.34143902
19  -9.25747695  -2.92842359  12.39957629
23  -4.70454399  -1.52062288  8.99548149

-c -h -mn -co -ag -ni -ni 0
def2svp
****
-n -o -f -cl 0
6-31+g(d)
****
-ce 0
sdd
****

-ce 0
sdd



