%chk=b.chk
%nprocshared=56 
%mem=96gb 
# def2svp wb97xd scrf=(smd,solvent=acetonitrile) g09default scf=(xqc,maxcycle=64) force  guess=read   nosymm

 Title Card 

-1 1
17  -9.97480823  7.85758553  10.45613207
6  -8.30761444  4.24027702  12.23551482
6  -9.06202465  3.91523011  11.09249443
6  -10.00413287  2.87669278  11.19840740
6  -10.18892080  2.18845586  12.39353976
6  -9.43003544  2.52108986  13.51671124
6  -8.48896341  3.54980619  13.43003254
1  -7.57569476  5.05031565  12.19789362
1  -10.60116952  2.61473100  10.32083310
1  -10.92175541  1.37993504  12.44416760
1  -9.55790636  1.96986942  14.45078904
1  -7.88939525  3.81603977  14.30475966
6  -8.92624460  4.62165889  9.81709799
6  -8.10172972  5.65389794  9.56742006
1  -9.58884814  4.27718235  9.01520829
1  -8.06294618  6.11593026  8.57942973
1  -7.38639544  6.01994715  10.30756435
8  -1.01245525  -1.76513563  7.46256990
8  -8.40870143  -1.32298179  7.46740039
8  -7.06059934  1.34024614  10.48667131
8  -2.33290150  -4.34691369  10.55931889
74  -3.42804834  0.74328837  6.49890573
74  -6.01081960  -3.82430539  6.58649430
74  -3.63550038  0.91541641  11.40580573
74  -5.77715320  -3.86702895  11.47016847
74  -2.47045157  -2.54585791  6.38104525
74  -6.94849337  -0.53320607  6.35038316
74  -6.82926176  -0.25235484  11.59456804
74  -2.57207144  -2.69348466  11.62819586
8  -3.20304952  1.94865463  5.34004931
8  -6.14067330  -5.08380028  5.45446744
8  -2.70866799  1.77008864  12.54387766
8  -6.69641028  -4.68168953  12.64329043
8  -2.69920303  -0.86649111  5.58736494
8  -6.71645039  -2.26875906  5.62807757
8  -5.32355412  0.56332988  12.37016858
8  -4.06788297  -3.50828898  12.41369746
8  0.29438532  -0.00600999  9.27731798
8  -9.71726154  -3.01221954  9.33583674
8  -6.39888143  3.41442273  8.62882721
8  -2.96332375  -6.44738121  8.74405045
8  -1.81301924  0.78634660  7.48715421
8  -7.61205888  -3.87856593  7.56339778
8  -4.53643203  2.21967018  10.42367884
8  -4.86745089  -5.21460041  10.52139370
8  -1.64542610  -3.47353820  5.22162240
8  -7.82248407  0.26844443  5.14935754
8  -8.03649801  -0.17941809  12.78415600
8  -1.34137776  -2.79936607  12.79465390
74  -1.26684427  -0.51539626  8.84464880
74  -8.15856996  -2.51035832  8.88446748
74  -5.93354011  1.85256207  9.04501395
74  -3.47040411  -4.88101625  9.16448997
8  -4.23806834  -3.09356767  6.07230482
8  -5.17858968  -0.02894435  6.01547052
8  -6.18920475  -2.00069247  11.92335347
8  -3.18731674  -0.94943583  11.92965056
8  -4.39583087  1.59924801  7.84730458
8  -5.00408252  -4.67388091  7.92945882
8  -2.34128066  0.60012941  10.07989905
8  -7.06885803  -3.60789934  10.13980420
8  -2.57944159  -3.87069962  7.85829050
8  -6.84778292  0.78906891  7.80262693
8  -7.84730015  -1.17311164  10.16306720
8  -1.57275868  -1.83478184  10.15384921
8  -3.38785632  -1.12709362  8.01571974
8  -6.03216418  -1.95303880  8.04529219
8  -5.13535296  -0.19838211  9.95307275
8  -4.25418269  -2.82143599  9.98074722
19  -3.23504117  -6.11355331  5.66989862
19  -0.15600484  0.03659244  12.34540017
19  -9.26298277  -2.92889381  12.40466986
23  -4.70455730  -1.52098320  8.99541449

-c -h -mn -co -ag -ni -ni 0
def2svp
****
-n -o -f -cl 0
6-31+g(d)
****
-ce 0
sdd
****

-ce 0
sdd



