%chk=a.chk
%nprocshared=56 
%mem=96gb 
# def2svp wb97xd scrf=(smd,solvent=acetonitrile) g09default scf=(xqc,maxcycle=64) force  guess=read   nosymm

 Title Card 

-1 1
17  -9.98101669  7.89163277  10.46579703
6  -8.30720553  4.23917179  12.23430755
6  -9.06529029  3.91524087  11.09336826
6  -10.00417307  2.87373158  11.19802068
6  -10.18786935  2.18621977  12.39299643
6  -9.42942155  2.52056517  13.51566634
6  -8.48767870  3.54831333  13.42890707
1  -7.57407237  5.04775285  12.19603316
1  -10.60189683  2.60958511  10.32075330
1  -10.92407361  1.38037979  12.44771958
1  -9.55924699  1.97272029  14.45136642
1  -7.89118547  3.81762021  14.30449381
6  -8.93265660  4.62580671  9.81955567
6  -8.11219104  5.66040404  9.57023035
1  -9.58490804  4.26896336  9.01458887
1  -8.06531941  6.11333475  8.57819553
1  -7.38898441  6.02161147  10.30552718
8  -1.01098557  -1.76369053  7.46063288
8  -8.41070602  -1.32433469  7.46601135
8  -7.05873491  1.34243298  10.48737885
8  -2.33238148  -4.34960451  10.56032006
74  -3.42516073  0.74296459  6.49616642
74  -6.01190143  -3.82694464  6.58489249
74  -3.63374199  0.91722912  11.40810644
74  -5.77856410  -3.86871269  11.47178637
74  -2.47059934  -2.54624668  6.38043045
74  -6.94672277  -0.53487083  6.34949190
74  -6.82802148  -0.25131494  11.59447284
74  -2.57263843  -2.69425315  11.62927155
8  -3.19967867  1.94602465  5.33453916
8  -6.14343369  -5.08271404  5.44876988
8  -2.71094626  1.77135339  12.55001349
8  -6.69342259  -4.68423388  12.64793533
8  -2.69810667  -0.86708817  5.58500089
8  -6.71700506  -2.26989306  5.62663182
8  -5.32334485  0.56437787  12.37086553
8  -4.06720147  -3.50961083  12.41427018
8  0.29507820  -0.00368323  9.27418520
8  -9.71800115  -3.01449696  9.33175640
8  -6.39347881  3.41600666  8.63039284
8  -2.96447166  -6.44943384  8.74702831
8  -1.81083216  0.78563036  7.48487721
8  -7.61278542  -3.87890014  7.56155449
8  -4.53458741  2.22016887  10.42527616
8  -4.86682473  -5.21514375  10.52292109
8  -1.64058297  -3.47279408  5.22302698
8  -7.82666051  0.26691258  5.15226714
8  -8.03796047  -0.17411185  12.78132124
8  -1.33984000  -2.80538164  12.79333525
74  -1.26637026  -0.51609205  8.84374350
74  -8.15874899  -2.50963245  8.88284604
74  -5.93133049  1.85209908  9.04490620
74  -3.46984998  -4.88189659  9.16599097
8  -4.23790635  -3.09288608  6.07128676
8  -5.17799239  -0.02896874  6.01287189
8  -6.18881548  -2.00068417  11.92394809
8  -3.18677389  -0.94999392  11.93179830
8  -4.39212305  1.59587718  7.84716426
8  -5.00565912  -4.67494780  7.92760011
8  -2.34150857  0.60147962  10.08127235
8  -7.06816325  -3.61013732  10.14077007
8  -2.58053672  -3.87136501  7.85873425
8  -6.84483955  0.78815595  7.80296620
8  -7.84612457  -1.17406612  10.16197640
8  -1.57375673  -1.83399488  10.15322056
8  -3.38652918  -1.12915224  8.01606776
8  -6.03309722  -1.95092711  8.04456311
8  -5.13756399  -0.19840555  9.95164778
8  -4.25202687  -2.82197517  9.97961047
19  -3.23372803  -6.11873554  5.66616287
19  -0.15100737  0.03924676  12.34924438
19  -9.26834216  -2.92884169  12.40985342
23  -4.70454922  -1.52126195  8.99517486

-c -h -mn -co -ag -ni -ni 0
def2svp
****
-n -o -f -cl 0
6-31+g(d)
****
-ce 0
sdd
****

-ce 0
sdd



