%chk=b.chk
%nprocshared=56 
%mem=96gb 
# def2svp wb97xd scrf=(smd,solvent=acetonitrile) g09default scf=(xqc,maxcycle=64) force  guess=read   nosymm

 Title Card 

-1 1
17  -9.98297698  7.92581710  10.47534580
6  -8.30830964  4.23853822  12.23345254
6  -9.06934400  3.91578481  11.09452886
6  -10.00559704  2.87147321  11.19786851
6  -10.18731015  2.18390376  12.39322112
6  -9.42840670  2.51980675  13.51497639
6  -8.48680592  3.54731749  13.42759081
1  -7.57250697  5.04474611  12.19284248
1  -10.60178232  2.60433006  10.32058764
1  -10.92524891  1.38032755  12.45104132
1  -9.56153897  1.97618763  14.45239048
1  -7.89209970  3.81828157  14.30371473
6  -8.93898680  4.62783020  9.82192468
6  -8.12017411  5.66458346  9.57165049
1  -9.58385534  4.26325085  9.01489413
1  -8.07136082  6.11266663  8.57793773
1  -7.39714686  6.02943376  10.30493846
8  -1.01003646  -1.76211447  7.45851384
8  -8.41154359  -1.32629524  7.46406352
8  -7.05549806  1.34410932  10.48819679
8  -2.33277293  -4.35211105  10.56139703
74  -3.42302653  0.74148592  6.49364516
74  -6.01202827  -3.82906021  6.58328251
74  -3.63206789  0.91777589  11.40987351
74  -5.77973674  -3.86907129  11.47277013
74  -2.47036527  -2.54752274  6.38062764
74  -6.94519313  -0.53595509  6.34941382
74  -6.82691329  -0.25057541  11.59302121
74  -2.57279875  -2.69476331  11.62937994
8  -3.19551353  1.94238778  5.32913354
8  -6.14638896  -5.08151796  5.44293497
8  -2.71343586  1.77212209  12.55636535
8  -6.68973442  -4.68630309  12.65223876
8  -2.69610980  -0.86800430  5.58484811
8  -6.71764945  -2.27082804  5.62726340
8  -5.32289501  0.56564937  12.36939796
8  -4.06631249  -3.51154167  12.41291660
8  0.29569482  -0.00130775  9.27145686
8  -9.71847497  -3.01701722  9.32795739
8  -6.38946747  3.41748992  8.63449594
8  -2.96624351  -6.45184222  8.75030308
8  -1.80900472  0.78290041  7.48225117
8  -7.61309235  -3.87766917  7.55949626
8  -4.53386353  2.21974155  10.42702566
8  -4.86509504  -5.21406008  10.52429311
8  -1.63576676  -3.47307921  5.22515052
8  -7.83064962  0.26479526  5.15571865
8  -8.03932210  -0.16838133  12.77776215
8  -1.33839531  -2.81223627  12.79136359
74  -1.26574748  -0.51667869  8.84284628
74  -8.15932009  -2.50973191  8.88122649
74  -5.92816084  1.85123231  9.04517745
74  -3.46945443  -4.88278064  9.16736792
8  -4.23821341  -3.09184231  6.07072997
8  -5.17619059  -0.03051204  6.01077304
8  -6.18704111  -2.00033276  11.92355651
8  -3.18714325  -0.95067763  11.93332127
8  -4.38849549  1.59177900  7.84833468
8  -5.00696677  -4.67505544  7.92684627
8  -2.34198437  0.60167901  10.08154470
8  -7.06717478  -3.61139919  10.14041967
8  -2.58077041  -3.87150484  7.85950896
8  -6.84234867  0.78659777  7.80369667
8  -7.84474214  -1.17410062  10.16023107
8  -1.57484674  -1.83467889  10.15192877
8  -3.38493766  -1.13013780  8.01485023
8  -6.03380568  -1.95020038  8.04233893
8  -5.13758122  -0.19767157  9.95147464
8  -4.25102637  -2.82314598  9.97965901
19  -3.23228005  -6.12334732  5.66285059
19  -0.14609210  0.04190285  12.35249967
19  -9.27305721  -2.92772008  12.41465638
23  -4.70424493  -1.52156144  8.99457450

-c -h -mn -co -ag -ni -ni 0
def2svp
****
-n -o -f -cl 0
6-31+g(d)
****
-ce 0
sdd
****

-ce 0
sdd



