%chk=a.chk
%nprocshared=56 
%mem=96gb 
# def2svp wb97xd scrf=(smd,solvent=acetonitrile) g09default scf=(xqc,maxcycle=64) force  guess=read   nosymm

 Title Card 

-1 1
17  -9.97814957  7.96302018  10.48556553
6  -8.31043310  4.23826307  12.23250241
6  -9.07433078  3.91624222  11.09576512
6  -10.00823741  2.86959817  11.19844758
6  -10.18782038  2.18214829  12.39447822
6  -9.42860017  2.51990415  13.51516958
6  -8.48672655  3.54696895  13.42689193
1  -7.57148504  5.04124115  12.18798192
1  -10.60127150  2.59883693  10.32041917
1  -10.92520681  1.37847852  12.45415705
1  -9.56453569  1.97997586  14.45434969
1  -7.89121191  3.81774385  14.30225291
6  -8.94481999  4.62858479  9.82365070
6  -8.12935163  5.66852141  9.57229560
1  -9.58683652  4.26033828  9.01600850
1  -8.08315236  6.11444032  8.57762242
1  -7.41365102  6.04544306  10.30675020
8  -1.00813246  -1.76197168  7.45716979
8  -8.41213683  -1.32801623  7.46232752
8  -7.05243205  1.34550702  10.48820300
8  -2.33270327  -4.35482910  10.56170404
74  -3.42135285  0.73745918  6.49124437
74  -6.01124146  -3.82922658  6.58169529
74  -3.63114933  0.91632828  11.41127965
74  -5.77914399  -3.86770586  11.47260950
74  -2.46915221  -2.54959762  6.38270301
74  -6.94406005  -0.53707157  6.35146159
74  -6.82585156  -0.24990170  11.58945019
74  -2.57269663  -2.69588763  11.62734876
8  -3.19086048  1.93629956  5.32518670
8  -6.14867537  -5.07910218  5.43867453
8  -2.71643707  1.77073841  12.56107829
8  -6.68509209  -4.68642158  12.65459540
8  -2.69289815  -0.86999163  5.58493715
8  -6.71821053  -2.27140692  5.62767843
8  -5.32252385  0.56658437  12.36771441
8  -4.06508427  -3.51370221  12.41139649
8  0.29541264  0.00047407  9.26951579
8  -9.71805257  -3.01948835  9.32476678
8  -6.38610099  3.41759498  8.64144087
8  -2.96905658  -6.45390565  8.75402747
8  -1.80671104  0.78004707  7.47966659
8  -7.61347604  -3.87707715  7.55724830
8  -4.53250214  2.21972441  10.42904911
8  -4.86389874  -5.21351658  10.52518779
8  -1.63187206  -3.47495689  5.22872557
8  -7.83360113  0.26215335  5.15979253
8  -8.03965945  -0.16308812  12.77254205
8  -1.33744147  -2.81943008  12.78813894
74  -1.26587111  -0.51694505  8.84155223
74  -8.15858124  -2.51110838  8.87918213
74  -5.92315418  1.85015261  9.04610512
74  -3.47034341  -4.88338867  9.16879071
8  -4.23798844  -3.09166637  6.06986918
8  -5.17403866  -0.03298661  6.00882279
8  -6.18467001  -1.99961430  11.92272560
8  -3.18682863  -0.95171580  11.93465725
8  -4.38488510  1.58797500  7.84943263
8  -5.00754706  -4.67507369  7.92643694
8  -2.34176110  0.60088401  10.08136722
8  -7.06668551  -3.61176845  10.13952017
8  -2.58009599  -3.87196254  7.86048180
8  -6.83994980  0.78502541  7.80483587
8  -7.84346712  -1.17355377  10.15764550
8  -1.57547525  -1.83679685  10.14988305
8  -3.38284115  -1.13109695  8.01252193
8  -6.03412918  -1.95035803  8.03970687
8  -5.13553922  -0.19681596  9.95203772
8  -4.25043839  -2.82436156  9.98008784
19  -3.23047143  -6.12748569  5.65971644
19  -0.14078320  0.04468334  12.35507849
19  -9.27721429  -2.92473271  12.41913592
23  -4.70340408  -1.52206261  8.99341619

-c -h -mn -co -ag -ni -ni 0
def2svp
****
-n -o -f -cl 0
6-31+g(d)
****
-ce 0
sdd
****

-ce 0
sdd



