%chk=a.chk
%nprocshared=56 
%mem=96gb 
# def2svp wb97xd scrf=(smd,solvent=acetonitrile) g09default scf=(xqc,maxcycle=64) force  guess=read   nosymm

 Title Card 

-1 1
17  -9.96966641  7.99396547  10.49402290
6  -8.31230873  4.23785219  12.23174689
6  -9.07842263  3.91620200  11.09652181
6  -10.01053800  2.86812691  11.19953276
6  -10.18898609  2.18135899  12.39576625
6  -9.42997273  2.52092605  13.51620027
6  -8.48725627  3.54713400  13.42653689
1  -7.57105815  5.03841147  12.18358102
1  -10.60117365  2.59443172  10.32038224
1  -10.92459351  1.37583651  12.45651443
1  -9.56695199  1.98293513  14.45636453
1  -7.88939204  3.81673086  14.30075625
6  -8.94997756  4.62934625  9.82462559
6  -8.13952149  5.67369966  9.57317532
1  -9.59092501  4.25917171  9.01715739
1  -8.09577363  6.11718589  8.57711270
1  -7.43153413  6.06193098  10.30909355
8  -1.00587324  -1.76305465  7.45695958
8  -8.41258587  -1.32900596  7.46148381
8  -7.05056523  1.34635125  10.48744757
8  -2.33223336  -4.35713295  10.56120717
74  -3.42007891  0.73292185  6.48951585
74  -6.01030828  -3.82821205  6.58042450
74  -3.63077309  0.91412752  11.41230120
74  -5.77784896  -3.86617983  11.47229587
74  -2.46731718  -2.55191323  6.38490164
74  -6.94359625  -0.53782189  6.35384107
74  -6.82529559  -0.24935648  11.58601391
74  -2.57180220  -2.69736918  11.62506377
8  -3.18728726  1.93061799  5.32260699
8  -6.14961198  -5.07693945  5.43625072
8  -2.71828258  1.76840190  12.56384572
8  -6.68150318  -4.68524236  12.65534956
8  -2.68988354  -0.87244335  5.58445317
8  -6.71836485  -2.27161010  5.62722591
8  -5.32236036  0.56675755  12.36691005
8  -4.06394284  -3.51515432  12.41055084
8  0.29494698  0.00138312  9.26875266
8  -9.71717082  -3.02132836  9.32285176
8  -6.38350256  3.41751729  8.64752891
8  -2.97170604  -6.45558887  8.75680809
8  -1.80459370  0.77829077  7.47807544
8  -7.61366383  -3.87755405  7.55560550
8  -4.53046130  2.21998739  10.43051309
8  -4.86392334  -5.21401360  10.52538108
8  -1.62926361  -3.47787471  5.23201590
8  -7.83523866  0.26042077  5.16291120
8  -8.03976875  -0.15978971  12.76795557
8  -1.33658651  -2.82469904  12.78507941
74  -1.26587461  -0.51690427  8.84050887
74  -8.15763369  -2.51301018  8.87770535
74  -5.91838779  1.84951168  9.04701404
74  -3.47179900  -4.88434427  9.16960936
8  -4.23698030  -3.09221030  6.06910342
8  -5.17266356  -0.03514801  6.00766196
8  -6.18289038  -1.99881412  11.92176418
8  -3.18568749  -0.95303657  11.93547755
8  -4.38201361  1.58544795  7.84948764
8  -5.00762250  -4.67506147  7.92592770
8  -2.34127937  0.59978650  10.08136041
8  -7.06627251  -3.61170830  10.13888286
8  -2.57942292  -3.87286344  7.86143576
8  -6.83767144  0.78404324  7.80592631
8  -7.84229968  -1.17315710  10.15513356
8  -1.57581234  -1.83885830  10.14788828
8  -3.38100564  -1.13246543  8.01067672
8  -6.03405882  -1.95053223  8.03816852
8  -5.13338464  -0.19654378  9.95224149
8  -4.24970261  -2.82515706  9.98007905
19  -3.22884560  -6.13033849  5.65735877
19  -0.13645033  0.04681880  12.35659846
19  -9.28008270  -2.92108612  12.42235493
23  -4.70243761  -1.52251678  8.99229455

-c -h -mn -co -ag -ni -ni 0
def2svp
****
-n -o -f -cl 0
6-31+g(d)
****
-ce 0
sdd
****

-ce 0
sdd



