%chk=b.chk
%nprocshared=56 
%mem=96gb 
# def2svp wb97xd scrf=(smd,solvent=acetonitrile) g09default scf=(xqc,maxcycle=64) force  guess=read   nosymm

 Title Card 

-1 1
17  -9.95546571  8.02997682  10.50384490
6  -8.31445837  4.23714278  12.23065739
6  -9.08289652  3.91605830  11.09708014
6  -10.01333845  2.86634448  11.20067661
6  -10.19095731  2.18072809  12.39783549
6  -9.43258688  2.52290274  13.51798011
6  -8.48829060  3.54765883  13.42637842
1  -7.57086679  5.03522275  12.17853930
1  -10.60150118  2.58954346  10.32083113
1  -10.92339542  1.37221359  12.45907341
1  -9.56959728  1.98621204  14.45899752
1  -7.88663676  3.81518723  14.29865396
6  -8.95714095  4.63087066  9.82584676
6  -8.15483375  5.68235157  9.57466078
1  -9.59652424  4.25828354  9.01833050
1  -8.11306196  6.12174553  8.57659041
1  -7.45591758  6.08334981  10.31219032
8  -1.00293145  -1.76519170  7.45753162
8  -8.41277483  -1.32992583  7.46108125
8  -7.04869149  1.34691481  10.48592624
8  -2.33170775  -4.35985197  10.56004003
74  -3.41859059  0.72729527  6.48745528
74  -6.00903416  -3.82676433  6.57857326
74  -3.63015643  0.91095975  11.41369414
74  -5.77599872  -3.86442297  11.47211328
74  -2.46436069  -2.55535497  6.38735494
74  -6.94363991  -0.53817378  6.35655636
74  -6.82508713  -0.24880101  11.58211296
74  -2.56982430  -2.69957589  11.62221435
8  -3.18364005  1.92382339  5.31982732
8  -6.14961468  -5.07462407  5.43418979
8  -2.71922948  1.76479819  12.56636600
8  -6.67825773  -4.68309322  12.65583186
8  -2.68625393  -0.87607821  5.58362997
8  -6.71810474  -2.27153011  5.62631614
8  -5.32221569  0.56626980  12.36628811
8  -4.06249082  -3.51640509  12.40964411
8  0.29490498  0.00202824  9.26890142
8  -9.71620463  -3.02347188  9.32157122
8  -6.38043389  3.41795916  8.65400201
8  -2.97488487  -6.45805066  8.75925584
8  -1.80217791  0.77648023  7.47688759
8  -7.61344145  -3.87863514  7.55407639
8  -4.52737309  2.21996803  10.43172687
8  -4.86484680  -5.21514334  10.52508532
8  -1.62639336  -3.48289710  5.23569915
8  -7.83648232  0.25933553  5.16607942
8  -8.04038590  -0.15724012  12.76295804
8  -1.33476555  -2.82995577  12.78165582
74  -1.26551632  -0.51680510  8.83946916
74  -8.15627766  -2.51566855  8.87638315
74  -5.91261567  1.84933020  9.04789603
74  -3.47390528  -4.88630615  9.17003077
8  -4.23500632  -3.09331483  6.06840056
8  -5.17140932  -0.03769181  6.00698098
8  -6.18112409  -1.99776654  11.92026081
8  -3.18365544  -0.95509232  11.93601212
8  -4.37880909  1.58310741  7.84863929
8  -5.00746830  -4.67490518  7.92514179
8  -2.34060774  0.59807101  10.08152611
8  -7.06545263  -3.61145201  10.13822936
8  -2.57870219  -3.87454626  7.86261368
8  -6.83458984  0.78328769  7.80713568
8  -7.84068840  -1.17294216  10.15205887
8  -1.57608671  -1.84127641  10.14550215
8  -3.37879288  -1.13458873  8.00875652
8  -6.03373141  -1.95078208  8.03698225
8  -5.13084360  -0.19658274  9.95209347
8  -4.24855042  -2.82607887  9.97965745
19  -3.22687463  -6.13303889  5.65487953
19  -0.13158609  0.04907031  12.35774603
19  -9.28287542  -2.91570898  12.42562610
23  -4.70104948  -1.52316548  8.99104295

-c -h -mn -co -ag -ni -ni 0
def2svp
****
-n -o -f -cl 0
6-31+g(d)
****
-ce 0
sdd
****

-ce 0
sdd



