%chk=a.chk
%nprocshared=56 
%mem=96gb 
# def2svp wb97xd scrf=(smd,solvent=acetonitrile) g09default scf=(xqc,maxcycle=64) force  guess=read   nosymm

 Title Card 

-1 1
17  -9.91607357  8.10313873  10.52341274
6  -8.31867608  4.23553273  12.22809117
6  -9.09248542  3.91593116  11.09785295
6  -10.01899483  2.86261297  11.20331976
6  -10.19545236  2.17997999  12.40248299
6  -9.43893876  2.52792807  13.52243352
6  -8.49101031  3.54903157  13.42592544
1  -7.57080389  5.02892356  12.16916482
1  -10.60379970  2.58011171  10.32294214
1  -10.92051084  1.36460674  12.46413740
1  -9.57468559  1.99288351  14.46481310
1  -7.88051734  3.81180308  14.29362813
6  -8.97572039  4.63659395  9.82876800
6  -8.19513568  5.70590264  9.57920701
1  -9.60865387  4.25604244  9.01982537
1  -8.15514691  6.13559562  8.57648586
1  -7.51353975  6.13124443  10.31889407
8  -0.99681505  -1.77087869  7.45992375
8  -8.41182069  -1.33161738  7.46103641
8  -7.04457619  1.34719847  10.48191717
8  -2.33146908  -4.36582464  10.55704804
74  -3.41573552  0.71606619  6.48297709
74  -6.00578322  -3.82340814  6.57447304
74  -3.62807023  0.90310814  11.41676480
74  -5.77208173  -3.86130339  11.47242326
74  -2.45684181  -2.56405270  6.39166616
74  -6.94450464  -0.53762291  6.36166837
74  -6.82554337  -0.24793104  11.57503138
74  -2.56383115  -2.70515333  11.61642599
8  -3.17770098  1.91002903  5.31386007
8  -6.14707383  -5.07160375  5.43029770
8  -2.71744441  1.75589798  12.57073920
8  -6.67465234  -4.67769888  12.65721371
8  -2.67872687  -0.88506027  5.58236420
8  -6.71647308  -2.27065029  5.62464105
8  -5.32162918  0.56383874  12.36499701
8  -4.05920438  -3.51820110  12.40734441
8  0.29606580  0.00223019  9.27157073
8  -9.71370893  -3.02780050  9.32116945
8  -6.37342775  3.42032915  8.66429214
8  -2.98144032  -6.46506587  8.76138197
8  -1.79776356  0.77230266  7.47573921
8  -7.61145970  -3.88100416  7.55167861
8  -4.52007239  2.21796047  10.43285872
8  -4.86802058  -5.21780735  10.52376334
8  -1.62030587  -3.49689732  5.24258329
8  -7.83765983  0.26008979  5.17133764
8  -8.04319598  -0.15535306  12.75385216
8  -1.32837907  -2.83854641  12.77519768
74  -1.26321190  -0.51679122  8.83802414
74  -8.15364523  -2.52188260  8.87494693
74  -5.90075660  1.85053935  9.04884152
74  -3.47884748  -4.89188810  9.16979017
8  -4.22965198  -3.09641881  6.06754825
8  -5.16893291  -0.04286231  6.00705283
8  -6.17831159  -1.99581251  11.91648703
8  -3.17861570  -0.96024819  11.93617322
8  -4.37267818  1.57992963  7.84508699
8  -5.00681351  -4.67456260  7.92326846
8  -2.33881851  0.59346654  10.08208576
8  -7.06278317  -3.61095419  10.13685558
8  -2.57711132  -3.87984193  7.86462534
8  -6.82771719  0.78297731  7.80865802
8  -7.83700237  -1.17311394  10.14624691
8  -1.57583927  -1.84613530  10.14131029
8  -3.37386330  -1.13960117  8.00534100
8  -6.03266064  -1.95171477  8.03542297
8  -5.12608567  -0.19716158  9.95106943
8  -4.24572166  -2.82863563  9.97820764
19  -3.22272265  -6.13697673  5.65054020
19  -0.12235687  0.05298899  12.35848882
19  -9.28734584  -2.90209076  12.43120659
23  -4.69779338  -1.52505106  8.98897774

-c -h -mn -co -ag -ni -ni 0
def2svp
****
-n -o -f -cl 0
6-31+g(d)
****
-ce 0
sdd
****

-ce 0
sdd



