%chk=a.chk
%nprocshared=56 
%mem=96gb 
# def2svp wb97xd scrf=(smd,solvent=acetonitrile) g09default scf=(xqc,maxcycle=64) force  guess=read   nosymm

 Title Card 

-1 1
17  -9.90096959  8.12648548  10.52944769
6  -8.32012771  4.23503407  12.22719066
6  -9.09576057  3.91627122  11.09810912
6  -10.02099533  2.86140691  11.20401414
6  -10.19687744  2.17962668  12.40412822
6  -9.44094965  2.52951267  13.52391307
6  -8.49183241  3.54950776  13.42564999
1  -7.57077048  5.02698548  12.16640471
1  -10.60491509  2.57724036  10.32400948
1  -10.91958836  1.36236782  12.46578068
1  -9.57628042  1.99512809  14.46671330
1  -7.87863342  3.81078440  14.29187377
6  -8.98270882  4.63910113  9.82992551
6  -8.21012467  5.71463633  9.58097424
1  -9.61257757  4.25499089  9.02002820
1  -8.17048284  6.14137755  8.57691261
1  -7.53382779  6.14748877  10.32117988
8  -0.99483279  -1.77290899  7.46081350
8  -8.41120951  -1.33217888  7.46109516
8  -7.04307711  1.34720430  10.48056343
8  -2.33160687  -4.36794509  10.55612896
74  -3.41488975  0.71247902  6.48162457
74  -6.00459711  -3.82267677  6.57277717
74  -3.62710674  0.90032586  11.41782712
74  -5.77090779  -3.86046129  11.47275154
74  -2.45413867  -2.56715848  6.39286910
74  -6.94497198  -0.53707331  6.36308386
74  -6.82564820  -0.24770500  11.57282316
74  -2.56159381  -2.70716392  11.61459474
8  -3.17612550  1.90567925  5.31170813
8  -6.14567854  -5.07070236  5.42928145
8  -2.71611363  1.75262459  12.57191181
8  -6.67411551  -4.67577997  12.65780045
8  -2.67626876  -0.88821091  5.58216105
8  -6.71571155  -2.27024122  5.62424222
8  -5.32132389  0.56281512  12.36452642
8  -4.05808312  -3.51873018  12.40651533
8  0.29678077  0.00204858  9.27289963
8  -9.71289072  -3.02926253  9.32155671
8  -6.37098671  3.42157136  8.66673178
8  -2.98369526  -6.46751189  8.76139198
8  -1.79643817  0.77073933  7.47553854
8  -7.61052196  -3.88167072  7.55100622
8  -4.51760830  2.21681243  10.43293961
8  -4.86916011  -5.21867616  10.52333767
8  -1.61830681  -3.50201564  5.24478502
8  -7.83757084  0.26089500  5.17302535
8  -8.04444485  -0.15546768  12.75118167
8  -1.32578262  -2.84088824  12.77314209
74  -1.26233161  -0.51696792  8.83762820
74  -8.15244353  -2.52383301  8.87463942
74  -5.89685385  1.85090496  9.04901060
74  -3.48044095  -4.89415531  9.16946172
8  -4.22776153  -3.09757365  6.06738662
8  -5.16799090  -0.04452689  6.00729211
8  -6.17757220  -1.99532841  11.91522657
8  -3.17694552  -0.96210245  11.93606939
8  -4.37079509  1.57931754  7.84362724
8  -5.00655023  -4.67455513  7.92269310
8  -2.33804403  0.59172936  10.08225736
8  -7.06176702  -3.61089205  10.13635887
8  -2.57648430  -3.88201956  7.86510059
8  -6.82550475  0.78324383  7.80881607
8  -7.83585201  -1.17330889  10.14460620
8  -1.57541001  -1.84772331  10.14026277
8  -3.37218406  -1.14130491  8.00440276
8  -6.03224475  -1.95215048  8.03498051
8  -5.12469394  -0.19748611  9.95059450
8  -4.24472689  -2.82973502  9.97769553
19  -3.22137353  -6.13788237  5.64931452
19  -0.11959674  0.05407920  12.35833688
19  -9.28851617  -2.89711775  12.43276570
23  -4.69664592  -1.52573188  8.98846007

-c -h -mn -co -ag -ni -ni 0
def2svp
****
-n -o -f -cl 0
6-31+g(d)
****
-ce 0
sdd
****

-ce 0
sdd



