%chk=b.chk
%nprocshared=56 
%mem=96gb 
# def2svp wb97xd scrf=(smd,solvent=acetonitrile) g09default scf=(xqc,maxcycle=64) force  guess=read   nosymm

 Title Card 

-1 1
17  -9.88426785  8.14997326  10.53533080
6  -8.32157860  4.23469454  12.22627850
6  -9.09943861  3.91672943  11.09834007
6  -10.02294882  2.86029729  11.20503054
6  -10.19816329  2.17935945  12.40561390
6  -9.44283571  2.53106406  13.52532887
6  -8.49264076  3.54990751  13.42530181
1  -7.57076561  5.02506801  12.16373666
1  -10.60638122  2.57439115  10.32514496
1  -10.91878377  1.36019436  12.46749874
1  -9.57787471  1.99746433  14.46867505
1  -7.87682193  3.80984851  14.29004260
6  -8.99048139  4.64185453  9.83114316
6  -8.22620413  5.72418550  9.58301290
1  -9.61648133  4.25372314  9.02015921
1  -8.18714602  6.14809218  8.57766621
1  -7.55543079  6.16432409  10.32355388
8  -0.99280197  -1.77506151  7.46172241
8  -8.41043616  -1.33271525  7.46111728
8  -7.04144066  1.34718940  10.47921416
8  -2.33183832  -4.37024736  10.55528503
74  -3.41406710  0.70889650  6.48022253
74  -6.00326322  -3.82158618  6.57135144
74  -3.62589933  0.89736789  11.41894062
74  -5.76982007  -3.85974706  11.47321796
74  -2.45138638  -2.57037596  6.39410715
74  -6.94514898  -0.53671904  6.36482819
74  -6.82597901  -0.24753958  11.57089062
74  -2.55914783  -2.70935304  11.61280142
8  -3.17471387  1.90124306  5.30944455
8  -6.14402917  -5.07022630  5.42795844
8  -2.71441295  1.74905740  12.57293159
8  -6.67383808  -4.67372870  12.65844231
8  -2.67374430  -0.89150561  5.58208397
8  -6.71483438  -2.26977183  5.62390250
8  -5.32090764  0.56169167  12.36401543
8  -4.05692553  -3.51929311  12.40567243
8  0.29753882  0.00167852  9.27440349
8  -9.71182039  -3.03072720  9.32214662
8  -6.36820340  3.42243498  8.66886105
8  -2.98605320  -6.47017861  8.76100495
8  -1.79511844  0.76902213  7.47537979
8  -7.60941955  -3.88229270  7.55030284
8  -4.51505399  2.21536882  10.43290876
8  -4.87030869  -5.21957346  10.52297658
8  -1.61620825  -3.50747344  5.24697755
8  -7.83747776  0.26223985  5.17441727
8  -8.04559105  -0.15596725  12.74834435
8  -1.32297780  -2.84306565  12.77097134
74  -1.26125724  -0.51725762  8.83728253
74  -8.15116336  -2.52585744  8.87439132
74  -5.89308797  1.85193918  9.04887645
74  -3.48211531  -4.89648239  9.16903440
8  -4.22578977  -3.09884618  6.06725591
8  -5.16693171  -0.04621120  6.00759652
8  -6.17688413  -1.99492552  11.91396045
8  -3.17529917  -0.96406335  11.93589231
8  -4.36891698  1.57890727  7.84204142
8  -5.00626523  -4.67467848  7.92212734
8  -2.33714887  0.58983848  10.08242665
8  -7.06065397  -3.61091548  10.13584358
8  -2.57574912  -3.88450343  7.86547445
8  -6.82331100  0.78373006  7.80877766
8  -7.83471475  -1.17353402  10.14311664
8  -1.57474458  -1.84938293  10.13939453
8  -3.37041419  -1.14304888  8.00357553
8  -6.03170467  -1.95262061  8.03462151
8  -5.12341756  -0.19777120  9.95012494
8  -4.24367691  -2.83100469  9.97718540
19  -3.21999829  -6.13860897  5.64816495
19  -0.11692794  0.05508344  12.35795166
19  -9.28955097  -2.89174860  12.43420836
23  -4.69548125  -1.52665916  8.98785101

-c -h -mn -co -ag -ni -ni 0
def2svp
****
-n -o -f -cl 0
6-31+g(d)
****
-ce 0
sdd
****

-ce 0
sdd



