%chk=b.chk
%nprocshared=56 
%mem=96gb 
# def2svp wb97xd scrf=(smd,solvent=acetonitrile) g09default scf=(xqc,maxcycle=64) force  guess=read   nosymm

 Title Card 

-1 1
17  -9.82827789  8.21242994  10.54943660
6  -8.32619709  4.23477395  12.22349389
6  -9.11124427  3.91962105  11.09935123
6  -10.02904779  2.85803039  11.20803001
6  -10.20093438  2.17828491  12.40953686
6  -9.44668666  2.53453191  13.52855820
6  -8.49428255  3.55075702  13.42364999
1  -7.57108720  5.02069876  12.15697824
1  -10.61239343  2.56751137  10.32939579
1  -10.91739593  1.35541644  12.47255001
1  -9.58192295  2.00433184  14.47399299
1  -7.87261389  3.80814480  14.28481513
6  -9.01535345  4.65148350  9.83478356
6  -8.27714669  5.75370866  9.58994316
1  -9.62706279  4.24881899  9.01987647
1  -8.24143747  6.17307894  8.58238391
1  -7.62203070  6.21343840  10.33168730
8  -0.98692629  -1.78173912  7.46413553
8  -8.40733804  -1.33399627  7.46100887
8  -7.03627594  1.34737529  10.47573309
8  -2.33281164  -4.37776646  10.55365493
74  -3.41176060  0.69958209  6.47649048
74  -5.99899860  -3.81916826  6.56693156
74  -3.62204612  0.88800224  11.42136882
74  -5.76695930  -3.85842693  11.47515048
74  -2.44336736  -2.57960196  6.39749193
74  -6.94562134  -0.53501773  6.36906331
74  -6.82601402  -0.24723652  11.56563887
74  -2.55209480  -2.71642312  11.60793802
8  -3.17195310  1.88867303  5.30271788
8  -6.13782319  -5.06929211  5.42440494
8  -2.70727233  1.73782101  12.57486922
8  -6.67474511  -4.66769765  12.66069243
8  -2.66658949  -0.90110208  5.58262325
8  -6.71162018  -2.26838666  5.62320166
8  -5.31910113  0.55813843  12.36260578
8  -4.05370955  -3.52130283  12.40373105
8  0.29998598  -0.00059204  9.27914570
8  -9.70710025  -3.03471703  9.32478095
8  -6.35967922  3.42578084  8.67147220
8  -2.99342117  -6.47796523  8.75761434
8  -1.79139428  0.76345874  7.47502234
8  -7.60565182  -3.88364637  7.54809554
8  -4.50764516  2.20996758  10.43213503
8  -4.87319795  -5.22240662  10.52276226
8  -1.61026278  -3.52321791  5.25319142
8  -7.83521034  0.26753396  5.17867241
8  -8.04888142  -0.15947881  12.74096001
8  -1.31423595  -2.84810483  12.76461982
74  -1.25764850  -0.51902735  8.83659627
74  -8.14701341  -2.53142744  8.87423034
74  -5.88254593  1.85435950  9.04816448
74  -3.48682125  -4.90355564  9.16753856
8  -4.22014595  -3.10289791  6.06723824
8  -5.16317826  -0.05111702  6.00878872
8  -6.17526774  -1.99455016  11.91078785
8  -3.17123979  -0.97027243  11.93489841
8  -4.36382220  1.57907589  7.83704345
8  -5.00548247  -4.67585453  7.92088368
8  -2.33372009  0.58366585  10.08267017
8  -7.05716232  -3.61159835  10.13425865
8  -2.57305445  -3.89297751  7.86591296
8  -6.81768785  0.78657012  7.80744541
8  -7.83194701  -1.17446050  10.14000605
8  -1.57130332  -1.85456733  10.13814682
8  -3.36517484  -1.14814915  8.00235316
8  -6.02972943  -1.95417559  8.03376870
8  -5.12047208  -0.19948890  9.94823276
8  -4.24051271  -2.83540985  9.97567496
19  -3.21626929  -6.13934511  5.64563269
19  -0.11052436  0.05711014  12.35520615
19  -9.29129498  -2.87469164  12.43712948
23  -4.69192235  -1.52973168  8.98688265

-c -h -mn -co -ag -ni -ni 0
def2svp
****
-n -o -f -cl 0
6-31+g(d)
****
-ce 0
sdd
****

-ce 0
sdd



