%chk=b.chk
%nprocshared=56 
%mem=96gb 
# def2svp wb97xd scrf=(smd,solvent=acetonitrile) g09default scf=(xqc,maxcycle=64) force  guess=read   nosymm

 Title Card 

-1 1
17  -9.81162111  8.22702538  10.55227257
6  -8.32765845  4.23504407  12.22274973
6  -9.11451213  3.92084079  11.09974010
6  -10.03090696  2.85772357  11.20867462
6  -10.20148447  2.17785354  12.41053363
6  -9.44718708  2.53512142  13.52917951
6  -8.49448654  3.55099333  13.42296192
1  -7.57134418  5.02003519  12.15539390
1  -10.61444814  2.56622140  10.33081439
1  -10.91729376  1.35464200  12.47388795
1  -9.58273568  2.00610860  14.47520671
1  -7.87178105  3.80802300  14.28351675
6  -9.02226848  4.65437227  9.83568349
6  -8.29148653  5.76171308  9.59201305
1  -9.62972462  4.24725889  9.01964826
1  -8.25741319  6.18125374  8.58435089
1  -7.64051532  6.22633550  10.33435394
8  -0.98537385  -1.78361894  7.46470698
8  -8.40630927  -1.33424760  7.46096701
8  -7.03483070  1.34751123  10.47495695
8  -2.33307394  -4.37995367  10.55345605
74  -3.41112691  0.69731963  6.47574668
74  -5.99782543  -3.81894935  6.56552430
74  -3.62088565  0.88546288  11.42186454
74  -5.76616141  -3.85822573  11.47570655
74  -2.44122644  -2.58197921  6.39829664
74  -6.94578695  -0.53436911  6.36981527
74  -6.82567986  -0.24722573  11.56429547
74  -2.55046701  -2.71848695  11.60664910
8  -3.17150008  1.88555400  5.30083848
8  -6.13588224  -5.06893842  5.42368201
8  -2.70498129  1.73458254  12.57497521
8  -6.67539500  -4.66621941  12.66143997
8  -2.66478917  -0.90355505  5.58294695
8  -6.71060112  -2.26805361  5.62303491
8  -5.31846587  0.55715819  12.36227573
8  -4.05293271  -3.52198765  12.40344373
8  0.30077936  -0.00148321  9.28035348
8  -9.70570102  -3.03579836  9.32567927
8  -6.35736973  3.42679475  8.67132909
8  -2.99553322  -6.47993858  8.75623621
8  -1.79039390  0.76186099  7.47490946
8  -7.60459054  -3.88388296  7.54744868
8  -4.50569497  2.20832059  10.43177650
8  -4.87378400  -5.22325434  10.52299289
8  -1.60879116  -3.52703282  5.25481691
8  -7.83399110  0.26910842  5.17994522
8  -8.04962347  -0.16080123  12.73928791
8  -1.31182755  -2.84920781  12.76306352
74  -1.25670251  -0.51981635  8.83645947
74  -8.14547448  -2.53269010  8.87420405
74  -5.87994546  1.85486939  9.04788070
74  -3.48799463  -4.90550986  9.16712302
8  -4.21870792  -3.10402183  6.06737298
8  -5.16200780  -0.05245176  6.00919311
8  -6.17487107  -1.99464105  11.91010069
8  -3.17043300  -0.97209892  11.93445612
8  -4.36252729  1.57937201  7.83569609
8  -5.00532062  -4.67635269  7.92070263
8  -2.33262512  0.58184411  10.08262627
8  -7.05617945  -3.61192575  10.13381823
8  -2.57223579  -3.89542939  7.86594472
8  -6.81639062  0.78763827  7.80686247
8  -7.83133929  -1.17477152  10.13945631
8  -1.57003239  -1.85608031  10.13807908
8  -3.36379602  -1.14952105  8.00240003
8  -6.02905366  -1.95460885  8.03359172
8  -5.11986500  -0.20020982  9.94761088
8  -4.23966789  -2.83670650  9.97526112
19  -3.21538662  -6.13919709  5.64518190
19  -0.10923051  0.05738193  12.35402986
19  -9.29139850  -2.86982463  12.43752979
23  -4.69090868  -1.53068655  8.98685380

-c -h -mn -co -ag -ni -ni 0
def2svp
****
-n -o -f -cl 0
6-31+g(d)
****
-ce 0
sdd
****

-ce 0
sdd



