%chk=b.chk
%nprocshared=56 
%mem=96gb 
# def2svp wb97xd scrf=(smd,solvent=acetonitrile) g09default scf=(xqc,maxcycle=64) force  guess=read   nosymm

 Title Card 

-1 1
17  -9.76841977  8.25472951  10.55629636
6  -8.33130636  4.23693653  12.22099530
6  -9.12267702  3.92430465  11.10034707
6  -10.03557329  2.85806679  11.21064112
6  -10.20223407  2.17712681  12.41231957
6  -9.44688914  2.53574403  13.52979683
6  -8.49451072  3.55155088  13.42109450
1  -7.57311684  5.02010870  12.15213391
1  -10.62092888  2.56509738  10.33450356
1  -10.91799242  1.35403859  12.47702998
1  -9.58341976  2.00974757  14.47736999
1  -7.87056870  3.80879563  14.28064392
6  -9.03902712  4.66104715  9.83751066
6  -8.32620865  5.78135187  9.59740408
1  -9.63577610  4.24329933  9.01888929
1  -8.29925062  6.20486372  8.59121537
1  -7.68548638  6.25540941  10.34206402
8  -0.98182786  -1.78837084  7.46585140
8  -8.40322543  -1.33442494  7.46083483
8  -7.03121797  1.34797308  10.47354006
8  -2.33360331  -4.38546182  10.55352785
74  -3.40939144  0.69306996  6.47424897
74  -5.99494383  -3.81807529  6.56290943
74  -3.61796590  0.87949734  11.42234295
74  -5.76463997  -3.85862870  11.47763417
74  -2.43660410  -2.58690586  6.40027211
74  -6.94503116  -0.53353094  6.37178256
74  -6.82464222  -0.24741261  11.56198483
74  -2.54680103  -2.72391769  11.60427385
8  -3.17100972  1.87864469  5.29667416
8  -6.13099480  -5.06896746  5.42139778
8  -2.69868263  1.72656368  12.57420077
8  -6.67738582  -4.66308576  12.66307171
8  -2.66099144  -0.90892534  5.58420567
8  -6.70783798  -2.26743779  5.62255223
8  -5.31643546  0.55483896  12.36157593
8  -4.05140661  -3.52410306  12.40350806
8  0.30284956  -0.00445686  9.28248803
8  -9.70143380  -3.03820803  9.32773663
8  -6.35179224  3.42849400  8.66944090
8  -3.00078862  -6.48451674  8.75204930
8  -1.78790744  0.75777026  7.47457152
8  -7.60198574  -3.88414457  7.54563619
8  -4.50111778  2.20405867  10.43061150
8  -4.87450495  -5.22554395  10.52435226
8  -1.60540605  -3.53454284  5.25797229
8  -7.83038689  0.27369173  5.18188461
8  -8.05002685  -0.16446786  12.73580356
8  -1.30689790  -2.85144085  12.75961164
74  -1.25407404  -0.52247719  8.83639658
74  -8.14170200  -2.53546842  8.87427516
74  -5.87492736  1.85675493  9.04658804
74  -3.49061156  -4.91004139  9.16610253
8  -4.21553427  -3.10675763  6.06820820
8  -5.15891754  -0.05573022  6.01053652
8  -6.17371119  -1.99525378  11.90879178
8  -3.16950870  -0.97694534  11.93262161
8  -4.35953519  1.58030480  7.83283788
8  -5.00517364  -4.67791564  7.92074151
8  -2.32978180  0.57703824  10.08216356
8  -7.05346388  -3.61296349  10.13275753
8  -2.57025204  -3.90129202  7.86613110
8  -6.81376080  0.79064892  7.80514749
8  -7.82990166  -1.17553707  10.13876365
8  -1.56635972  -1.86012146  10.13833893
8  -3.36060723  -1.15274650  8.00358609
8  -6.02673167  -1.95561842  8.03355230
8  -5.11879112  -0.20245871  9.94607009
8  -4.23773251  -2.84013292  9.97449775
19  -3.21366778  -6.13801610  5.64473569
19  -0.10744902  0.05713574  12.34997174
19  -9.29060238  -2.85756872  12.43730536
23  -4.68855784  -1.53349778  8.98695365

-c -h -mn -co -ag -ni -ni 0
def2svp
****
-n -o -f -cl 0
6-31+g(d)
****
-ce 0
sdd
****

-ce 0
sdd



