%chk=b.chk
%nprocshared=56 
%mem=96gb 
# def2svp wb97xd scrf=(smd,solvent=acetonitrile) g09default scf=(xqc,maxcycle=64) force  guess=read   nosymm

 Title Card 

-1 1
17  -9.84389459  7.51240172  10.36382492
6  -8.30795410  4.25598433  12.24151381
6  -9.07741267  3.94087723  11.10279086
6  -10.01012409  2.88975260  11.19378566
6  -10.18490866  2.19045131  12.37897686
6  -9.42470868  2.52415413  13.50385316
6  -8.48274864  3.55258497  13.42588285
1  -7.57167056  5.06139706  12.19879578
1  -10.59979526  2.62829729  10.30919128
1  -10.91257231  1.37799848  12.43354300
1  -9.55903841  1.97551948  14.43600849
1  -7.88254421  3.80854512  14.30332183
6  -8.94174239  4.65659823  9.84527749
6  -8.12020889  5.70185268  9.59805904
1  -9.61058119  4.32123200  9.04224487
1  -8.04312695  6.11714419  8.58794323
1  -7.36119174  6.04148565  10.31330242
8  -0.97625536  -1.76382850  7.44368281
8  -8.44466636  -1.32341073  7.45120302
8  -7.08525192  1.36407340  10.50608275
8  -2.31426295  -4.37349115  10.57770508
74  -3.42001841  0.74778295  6.52369464
74  -6.02495204  -3.82523043  6.60287744
74  -3.64401304  0.92951576  11.38453705
74  -5.76800474  -3.87597938  11.45588706
74  -2.47561186  -2.53278746  6.37477690
74  -6.94488326  -0.54630771  6.35005370
74  -6.81708720  -0.24885530  11.60094597
74  -2.58582909  -2.69407538  11.63083405
8  -3.21002760  1.93403000  5.36240675
8  -6.13393059  -5.07302672  5.47243066
8  -2.71482361  1.75635284  12.52656251
8  -6.68930374  -4.66696197  12.62766601
8  -2.68316391  -0.85920330  5.57617777
8  -6.73000098  -2.27808067  5.61601289
8  -5.32909139  0.58469179  12.37975897
8  -4.06578981  -3.52506513  12.42734039
8  0.28177647  -0.00608818  9.28256185
8  -9.70286710  -3.01291154  9.34455520
8  -6.45076527  3.40408513  8.67292791
8  -2.97350563  -6.43518234  8.73946682
8  -1.79182832  0.79291092  7.48313824
8  -7.63615119  -3.88338210  7.55513611
8  -4.54892173  2.24841527  10.43268962
8  -4.85970287  -5.23349575  10.53050479
8  -1.65637577  -3.47359422  5.23469186
8  -7.81004304  0.25805952  5.16513179
8  -8.02819300  -0.18185963  12.77415915
8  -1.35164241  -2.78972925  12.77915515
74  -1.25783177  -0.53674295  8.83098378
74  -8.16563529  -2.49083455  8.87550311
74  -5.96872112  1.85411676  9.06264744
74  -3.44992092  -4.87468033  9.17514443
8  -4.24298678  -3.07141381  6.08895201
8  -5.17030866  -0.05338466  6.03788310
8  -6.16594457  -1.98989751  11.90623055
8  -3.21604109  -0.95851897  11.91266137
8  -4.39900997  1.58888217  7.86833722
8  -5.01254748  -4.64714624  7.95025835
8  -2.36727819  0.58993656  10.06051758
8  -7.04528648  -3.59582627  10.12134794
8  -2.57117596  -3.86109336  7.87103754
8  -6.86013686  0.78599809  7.81262487
8  -7.84574703  -1.15955861  10.15200797
8  -1.57588839  -1.84457638  10.14278616
8  -3.35793220  -1.13813367  8.01565869
8  -6.06260546  -1.93384970  8.04027369
8  -5.17040050  -0.17592597  9.94817270
8  -4.22621664  -2.83278654  9.98345670
19  -3.24714103  -6.06834351  5.70298511
19  -0.19906608  0.01687783  12.31254371
19  -9.21558333  -2.91837825  12.36578919
23  -4.70596115  -1.51677635  8.99500432

-c -h -mn -co -ag -ni -ni 0
def2svp
****
-n -o -f -cl 0
6-31+g(d)
****
-ce 0
sdd
****

-ce 0
sdd



