%chk=a.chk
%nprocshared=56 
%mem=96gb 
# def2svp wb97xd scrf=(smd,solvent=acetonitrile) g09default scf=(xqc,maxcycle=64) force  guess=read   nosymm

 Title Card 

-1 1
17  -9.74640717  8.26544711  10.55723831
6  -8.33316863  4.23821765  12.22015243
6  -9.12654051  3.92606717  11.10048365
6  -10.03798250  2.85857049  11.21163826
6  -10.20253368  2.17695725  12.41304199
6  -9.44631756  2.53582729  13.52986820
6  -8.49440411  3.55197281  13.42010457
1  -7.57454281  5.02089457  12.15066495
1  -10.62464290  2.56540687  10.33639644
1  -10.91862138  1.35417993  12.47852388
1  -9.58311404  2.01115010  14.47806986
1  -7.87018548  3.80956726  14.27931240
6  -9.04706138  4.66411821  9.83824679
6  -8.34322387  5.79088532  9.60019044
1  -9.63877204  4.24145678  9.01845184
1  -8.32070354  6.21770119  8.59534872
1  -7.70729087  6.26878465  10.34633718
8  -0.98018880  -1.79076813  7.46633530
8  -8.40148225  -1.33438587  7.46082641
8  -7.02940044  1.34820430  10.47298042
8  -2.33381187  -4.38815746  10.55368478
74  -3.40843460  0.69127141  6.47382920
74  -5.99357009  -3.81782772  6.56164673
74  -3.61658824  0.87670328  11.42226663
74  -5.76401075  -3.85912951  11.47878477
74  -2.43453252  -2.58896162  6.40124772
74  -6.94443861  -0.53317898  6.37248633
74  -6.82390814  -0.24756275  11.56104764
74  -2.54513931  -2.72668529  11.60338150
8  -3.17081572  1.87568537  5.29470432
8  -6.12864171  -5.06903439  5.42028028
8  -2.69543101  1.72268019  12.57352451
8  -6.67836938  -4.66181584  12.66377117
8  -2.65938685  -0.91132016  5.58496070
8  -6.70640730  -2.26723004  5.62227086
8  -5.31527495  0.55373947  12.36124570
8  -4.05078384  -3.52531887  12.40379722
8  0.30406407  -0.00614282  9.28315125
8  -9.69917802  -3.03934459  9.32855851
8  -6.34925839  3.42936197  8.66816549
8  -3.00338484  -6.48664245  8.74991322
8  -1.78663635  0.75569178  7.47436550
8  -7.60074763  -3.88415927  7.54469017
8  -4.49892800  2.20197534  10.42994964
8  -4.87461747  -5.22674636  10.52526140
8  -1.60380368  -3.53745844  5.25913084
8  -7.82827762  0.27586252  5.18257156
8  -8.04973869  -0.16617144  12.73447136
8  -1.30493809  -2.85253218  12.75817680
74  -1.25276266  -0.52405113  8.83643168
74  -8.13989754  -2.53673517  8.87435484
74  -5.87279564  1.85749031  9.04589426
74  -3.49177087  -4.91228310  9.16560195
8  -4.21411086  -3.10806321  6.06884612
8  -5.15732937  -0.05737286  6.01138950
8  -6.17299061  -1.99565128  11.90822789
8  -3.16941799  -0.97949181  11.93136209
8  -4.35807621  1.58067691  7.83166703
8  -5.00522759  -4.67870419  7.92095527
8  -2.32837128  0.57454690  10.08177782
8  -7.05197378  -3.61348566  10.13221582
8  -2.56938523  -3.90395564  7.86637593
8  -6.81256509  0.79209753  7.80432261
8  -7.82909611  -1.17591329  10.13854082
8  -1.56446580  -1.86225101  10.13850577
8  -3.35915258  -1.15431432  8.00451949
8  -6.02537538  -1.95615086  8.03360340
8  -5.11827468  -0.20377982  9.94530393
8  -4.23687323  -2.84188693  9.97424176
19  -3.21298885  -6.13721958  5.64472035
19  -0.10706710  0.05666122  12.34757683
19  -9.28987816  -2.85146400  12.43677754
23  -4.68735804  -1.53491419  8.98711749

-c -h -mn -co -ag -ni -ni 0
def2svp
****
-n -o -f -cl 0
6-31+g(d)
****
-ce 0
sdd
****

-ce 0
sdd



