%chk=a.chk
%nprocshared=56 
%mem=96gb 
# def2svp wb97xd scrf=(smd,solvent=acetonitrile) g09default scf=(xqc,maxcycle=64) force  guess=read   nosymm

 Title Card 

-1 1
17  -9.70290380  8.27915472  10.55645436
6  -8.33699799  4.24139853  12.21833901
6  -9.13318252  3.92913155  11.10043302
6  -10.04287175  2.86034953  11.21339638
6  -10.20323044  2.17731818  12.41436430
6  -9.44442609  2.53583920  13.52937196
6  -8.49417491  3.55338538  13.41813059
1  -7.57908266  5.02474242  12.14801365
1  -10.63322957  2.56852695  10.34017542
1  -10.92043671  1.35552795  12.48126515
1  -9.58033010  2.01232908  14.47837983
1  -7.86979438  3.81211467  14.27681534
6  -9.06157599  4.66923896  9.83894300
6  -8.37511822  5.80812968  9.60612800
1  -9.64511489  4.23868517  9.01744802
1  -8.36356851  6.24495727  8.60543979
1  -7.74804925  6.29176838  10.35556162
8  -0.97736867  -1.79547301  7.46703324
8  -8.39753699  -1.33404061  7.46103374
8  -7.02575879  1.34848222  10.47219967
8  -2.33408317  -4.39309848  10.55412205
74  -3.40615260  0.68894051  6.47351638
74  -5.99111014  -3.81781591  6.55936161
74  -3.61408743  0.87186431  11.42140749
74  -5.76262474  -3.86050199  11.48089700
74  -2.43098709  -2.59215417  6.40287042
74  -6.94282292  -0.53272224  6.37301681
74  -6.82176400  -0.24810770  11.55961888
74  -2.54281248  -2.73215487  11.60201467
8  -3.17024100  1.87097873  5.29182299
8  -6.12456525  -5.06923594  5.41818425
8  -2.68915398  1.71556894  12.57151969
8  -6.68022023  -4.66058312  12.66509650
8  -2.65712200  -0.91523667  5.58665120
8  -6.70360174  -2.26710146  5.62158678
8  -5.31259210  0.55179504  12.36057505
8  -4.04985171  -3.52812551  12.40491504
8  0.30689077  -0.00996459  9.28322254
8  -9.69503239  -3.04146656  9.32937626
8  -6.34510726  3.43078805  8.66562653
8  -3.00811450  -6.49065101  8.74605605
8  -1.78398261  0.75153412  7.47387111
8  -7.59859078  -3.88395148  7.54283136
8  -4.49485533  2.19823307  10.42848312
8  -4.87435174  -5.22925487  10.52742753
8  -1.60107551  -3.54067960  5.26026927
8  -7.82343507  0.27920822  5.18303744
8  -8.04783659  -0.16855836  12.73319251
8  -1.30242382  -2.85496392  12.75676617
74  -1.24997578  -0.52765380  8.83678461
74  -8.13631154  -2.53890189  8.87447368
74  -5.86960027  1.85851837  9.04451524
74  -3.49382134  -4.91630338  9.16480510
8  -4.21178708  -3.11044623  6.07062512
8  -5.15410461  -0.06052845  6.01360608
8  -6.17113899  -1.99658401  11.90732503
8  -3.17000793  -0.98467989  11.92789287
8  -4.35518494  1.58084321  7.83027522
8  -5.00572074  -4.68015668  7.92183276
8  -2.32564051  0.56953709  10.08055611
8  -7.04874086  -3.61438196  10.13113125
8  -2.56823620  -3.90814666  7.86732942
8  -6.81028735  0.79434167  7.80303134
8  -7.82704831  -1.17659784  10.13826679
8  -1.56078567  -1.86667229  10.13874613
8  -3.35646883  -1.15719219  8.00682089
8  -6.02224824  -1.95741983  8.03372202
8  -5.11702612  -0.20655837  9.94398469
8  -4.23560777  -2.84530208  9.97411176
19  -3.21211676  -6.13536526  5.64513076
19  -0.10761043  0.05472316  12.34202667
19  -9.28783147  -2.83976659  12.43476972
23  -4.68501680  -1.53786388  8.98785201

-c -h -mn -co -ag -ni -ni 0
def2svp
****
-n -o -f -cl 0
6-31+g(d)
****
-ce 0
sdd
****

-ce 0
sdd



