%chk=a.chk
%nprocshared=56 
%mem=96gb 
# def2svp wb97xd scrf=(smd,solvent=acetonitrile) g09default scf=(xqc,maxcycle=64) force  guess=read   nosymm

 Title Card 

-1 1
17  -9.67247266  8.28022919  10.55237858
6  -8.34023824  4.24475509  12.21678990
6  -9.13668310  3.93056316  11.09954792
6  -10.04694385  2.86275466  11.21439617
6  -10.20433181  2.17873144  12.41517432
6  -9.44185100  2.53587431  13.52836229
6  -8.49418188  3.55573240  13.41623983
1  -7.58570412  5.03164787  12.14623001
1  -10.64198516  2.57491504  10.34314755
1  -10.92265873  1.35826003  12.48324618
1  -9.57403400  2.01024203  14.47661625
1  -7.86989701  3.81586288  14.27484964
6  -9.07036520  4.67145328  9.83827753
6  -8.39614861  5.81854557  9.61128264
1  -9.65145394  4.23843986  9.01637831
1  -8.39580946  6.26754099  8.61613842
1  -7.77379778  6.30288207  10.36361094
8  -0.97586928  -1.79889689  7.46697427
8  -8.39384295  -1.33347175  7.46146145
8  -7.02285891  1.34820990  10.47219049
8  -2.33419850  -4.39607446  10.55452178
74  -3.40379586  0.68868558  6.47459409
74  -5.98966219  -3.81837902  6.55823502
74  -3.61224091  0.86947134  11.41970122
74  -5.76161511  -3.86230340  11.48217922
74  -2.42934546  -2.59312824  6.40344418
74  -6.94052154  -0.53314480  6.37239331
74  -6.81923658  -0.24896964  11.55954565
74  -2.54234429  -2.73613989  11.60181141
8  -3.16894535  1.86980470  5.29170593
8  -6.12263087  -5.06967885  5.41683421
8  -2.68494154  1.71126292  12.56903563
8  -6.68100939  -4.66172974  12.66558454
8  -2.65686393  -0.91695292  5.58794660
8  -6.70168508  -2.26753225  5.62089273
8  -5.30975500  0.55070876  12.35999563
8  -4.04952844  -3.53088279  12.40636179
8  0.30993745  -0.01374146  9.28153951
8  -9.69260456  -3.04264177  9.32849104
8  -6.34348775  3.43087170  8.66443711
8  -3.01073149  -6.49313923  8.74420097
8  -1.78150915  0.74832429  7.47338828
8  -7.59749858  -3.88360870  7.54161559
8  -4.49203514  2.19617708  10.42722945
8  -4.87368995  -5.23141885  10.52922710
8  -1.59986895  -3.53928631  5.25911450
8  -7.81896352  0.27978757  5.18147031
8  -8.04391821  -0.16836783  12.73429682
8  -1.30320143  -2.85742391  12.75812847
74  -1.24761746  -0.53122056  8.83733469
74  -8.13350869  -2.53992340  8.87428997
74  -5.86866714  1.85870695  9.04357279
74  -3.49493388  -4.91876543  9.16437780
8  -4.21091014  -3.11212192  6.07236728
8  -5.15148555  -0.06247394  6.01586567
8  -6.16916542  -1.99760727  11.90722945
8  -3.17113573  -0.98852905  11.92386961
8  -4.35281576  1.58012901  7.83084000
8  -5.00668740  -4.68133047  7.92308576
8  -2.32328815  0.56592793  10.07893854
8  -7.04609670  -3.61486421  10.13037817
8  -2.56842641  -3.90969951  7.86847247
8  -6.80848444  0.79476693  7.80265592
8  -7.82469534  -1.17708483  10.13846524
8  -1.55796888  -1.87028572  10.13889405
8  -3.35476178  -1.15908129  8.00903319
8  -6.01909989  -1.95891176  8.03380190
8  -5.11539881  -0.20863818  9.94331417
8  -4.23544196  -2.84774683  9.97465704
19  -3.21218728  -6.13391958  5.64598065
19  -0.11000628  0.05141041  12.33666448
19  -9.28570755  -2.83175404  12.43189463
23  -4.68326862  -1.54021327  8.98867980

-c -h -mn -co -ag -ni -ni 0
def2svp
****
-n -o -f -cl 0
6-31+g(d)
****
-ce 0
sdd
****

-ce 0
sdd



