%chk=a.chk
%nprocshared=56 
%mem=96gb 
# def2svp wb97xd scrf=(smd,solvent=acetonitrile) g09default scf=(xqc,maxcycle=64) force  guess=read   nosymm

 Title Card 

-1 1
17  -9.66014986  8.27826730  10.54953683
6  -8.34192270  4.24686118  12.21580608
6  -9.13801485  3.93098711  11.09874568
6  -10.04909271  2.86421437  11.21480748
6  -10.20493285  2.17985378  12.41554875
6  -9.44022721  2.53581972  13.52747798
6  -8.49419367  3.55727202  13.41530086
1  -7.59010333  5.03630429  12.14547491
1  -10.64702795  2.57920414  10.34462397
1  -10.92409817  1.36012166  12.48429289
1  -9.56934988  2.00810384  14.47503100
1  -7.87011986  3.81837990  14.27370054
6  -9.07405581  4.67207570  9.83767058
6  -8.40468568  5.82258795  9.61384927
1  -9.65527437  4.23915228  9.01577746
1  -8.41029888  6.27841942  8.62208260
1  -7.78321547  6.30543428  10.36761839
8  -0.97540880  -1.80042190  7.46662875
8  -8.39191586  -1.33312641  7.46167723
8  -7.02143649  1.34785842  10.47247231
8  -2.33428447  -4.39714312  10.55471938
74  -3.40242030  0.68920902  6.47560488
74  -5.98915083  -3.81898905  6.55796272
74  -3.61125826  0.86884814  11.41848243
74  -5.76128376  -3.86348272  11.48256945
74  -2.42907288  -2.59305544  6.40334662
74  -6.93901764  -0.53360527  6.37163874
74  -6.81764496  -0.24957270  11.55997778
74  -2.54256149  -2.73785659  11.60210572
8  -3.16788601  1.87026342  5.29273728
8  -6.12217920  -5.07008184  5.41639965
8  -2.68312173  1.70979165  12.56765193
8  -6.68113078  -4.66307058  12.66554741
8  -2.65723694  -0.91732324  5.58844769
8  -6.70089577  -2.26797004  5.62057562
8  -5.30804532  0.55030308  12.35968121
8  -4.04951258  -3.53235551  12.40710857
8  0.31168132  -0.01595706  9.28030275
8  -9.69162385  -3.04281961  9.32751595
8  -6.34342473  3.43050890  8.66425198
8  -3.01140458  -6.49406936  8.74377237
8  -1.78011432  0.74678739  7.47316335
8  -7.59717161  -3.88343973  7.54120254
8  -4.49076601  2.19552048  10.42663447
8  -4.87332067  -5.23251582  10.52993642
8  -1.59968417  -3.53750830  5.25776907
8  -7.81654610  0.27917518  5.18003602
8  -8.04123265  -0.16754136  12.73562757
8  -1.30457378  -2.85876516  12.75969673
74  -1.24627300  -0.53323772  8.83769317
74  -8.13235855  -2.54011176  8.87414319
74  -5.86872473  1.85842954  9.04329915
74  -3.49521592  -4.91964595  9.16420620
8  -4.21085898  -3.11293545  6.07307926
8  -5.15017506  -0.06308961  6.01694705
8  -6.16817227  -1.99828983  11.90758736
8  -3.17161532  -0.99013194  11.92168085
8  -4.35160114  1.57964327  7.83168387
8  -5.00731115  -4.68208616  7.92377167
8  -2.32186803  0.56446909  10.07799920
8  -7.04497371  -3.61509369  10.13011965
8  -2.56889251  -3.91001337  7.86889352
8  -6.80757277  0.79451213  7.80263949
8  -7.82337619  -1.17736018  10.13886211
8  -1.55651262  -1.87201677  10.13906710
8  -3.35407143  -1.15987162  8.01015233
8  -6.01739246  -1.95983568  8.03381946
8  -5.11432872  -0.20958186  9.94302743
8  -4.23566411  -2.84875804  9.97505667
19  -3.21249163  -6.13340283  5.64649989
19  -0.11179383  0.04906607  12.33381841
19  -9.28469048  -2.82844501  12.43011835
23  -4.68243516  -1.54127548  8.98912284

-c -h -mn -co -ag -ni -ni 0
def2svp
****
-n -o -f -cl 0
6-31+g(d)
****
-ce 0
sdd
****

-ce 0
sdd



