%chk=b.chk
%nprocshared=56 
%mem=96gb 
# def2svp wb97xd scrf=(smd,solvent=acetonitrile) g09default scf=(xqc,maxcycle=64) force  guess=read   nosymm

 Title Card 

-1 1
17  -9.65637767  8.27722975  10.54840036
6  -8.34262080  4.24770346  12.21542367
6  -9.13849763  3.93113419  11.09839697
6  -10.04993995  2.86481460  11.21494244
6  -10.20518329  2.18030403  12.41565322
6  -9.43949364  2.53576797  13.52710358
6  -8.49420138  3.55792086  13.41485886
1  -7.59195259  5.03828051  12.14521938
1  -10.64905651  2.58096051  10.34519406
1  -10.92469748  1.36092542  12.48472759
1  -9.56727345  2.00709638  14.47428055
1  -7.87022720  3.81946934  14.27323009
6  -9.07536951  4.67231851  9.83738322
6  -8.40742403  5.82382806  9.61479140
1  -9.65688183  4.23963313  9.01556342
1  -8.41522509  6.28231278  8.62435494
1  -7.78584519  6.30568245  10.36903694
8  -0.97530281  -1.80094911  7.46642395
8  -8.39119518  -1.33298841  7.46174545
8  -7.02091054  1.34767230  10.47265186
8  -2.33433399  -4.39744034  10.55478829
74  -3.40186915  0.68953106  6.47611683
74  -5.98901268  -3.81930840  6.55793633
74  -3.61085650  0.86874191  11.41793614
74  -5.76127083  -3.86402297  11.48269068
74  -2.42910951  -2.59291135  6.40319752
74  -6.93835479  -0.53383280  6.37126929
74  -6.81697539  -0.24983603  11.56026546
74  -2.54268582  -2.73841330  11.60235240
8  -3.16738037  1.87071069  5.29337058
8  -6.12212082  -5.07031198  5.41630103
8  -2.68247095  1.70942670  12.56714635
8  -6.68110477  -4.66371096  12.66543022
8  -2.65746450  -0.91736466  5.58858836
8  -6.70063523  -2.26818721  5.62048530
8  -5.30733135  0.55016082  12.35955445
8  -4.04954237  -3.53290094  12.40735327
8  0.31240989  -0.01686780  9.27982056
8  -9.69129917  -3.04275427  9.32706271
8  -6.34359508  3.43033674  8.66425423
8  -3.01148690  -6.49431988  8.74371690
8  -1.77955571  0.74622462  7.47309939
8  -7.59708439  -3.88338398  7.54110985
8  -4.49031671  2.19534528  10.42642892
8  -4.87318815  -5.23291036  10.53011967
8  -1.59971367  -3.53670680  5.25709621
8  -7.81562091  0.27876637  5.17935290
8  -8.04010570  -0.16710965  12.73628949
8  -1.30529524  -2.85926326  12.76043273
74  -1.24574894  -0.53406304  8.83782577
74  -8.13202099  -2.54008534  8.87408436
74  -5.86883466  1.85816714  9.04327021
74  -3.49522266  -4.91992791  9.16412202
8  -4.21092481  -3.11324936  6.07325965
8  -5.14968499  -0.06321537  6.01729456
8  -6.16783554  -1.99860279  11.90784085
8  -3.17171089  -0.99062802  11.92088732
8  -4.35114500  1.57947940  7.83209711
8  -5.00755304  -4.68244046  7.92400674
8  -2.32124347  0.56402642  10.07764980
8  -7.04463980  -3.61519564  10.13006519
8  -2.56913188  -3.91008415  7.86896235
8  -6.80722983  0.79433994  7.80264656
8  -7.82288074  -1.17748225  10.13910633
8  -1.55593906  -1.87263198  10.13917814
8  -3.35384497  -1.16013566  8.01055498
8  -6.01675271  -1.96021677  8.03382056
8  -5.11387798  -0.20991369  9.94291800
8  -4.23579660  -2.84909824  9.97522412
19  -3.21266072  -6.13329016  5.64669551
19  -0.11255756  0.04802909  12.33275397
19  -9.28436289  -2.82738987  12.42940205
23  -4.68213199  -1.54160432  8.98926389

-c -h -mn -co -ag -ni -ni 0
def2svp
****
-n -o -f -cl 0
6-31+g(d)
****
-ce 0
sdd
****

-ce 0
sdd



