%chk=b.chk
%nprocshared=56 
%mem=96gb 
# def2svp wb97xd scrf=(smd,solvent=acetonitrile) g09default scf=(xqc,maxcycle=64) force  guess=read   nosymm

 Title Card 

-1 1
17  -9.64987550  8.27473324  10.54588336
6  -8.34437690  4.24978006  12.21447204
6  -9.13975813  3.93158681  11.09753570
6  -10.05201106  2.86627661  11.21521839
6  -10.20571595  2.18133021  12.41585731
6  -9.43756326  2.53553030  13.52608530
6  -8.49417532  3.55945432  13.41371253
1  -7.59650919  5.04309652  12.14468876
1  -10.65392379  2.58505309  10.34655755
1  -10.92616572  1.36290227  12.48584404
1  -9.56198199  2.00447751  14.47232517
1  -7.87051448  3.82221265  14.27201514
6  -9.07841186  4.67300985  9.83672143
6  -8.41262024  5.82613544  9.61679104
1  -9.66098225  4.24124489  9.01514726
1  -8.42512209  6.29064565  8.62940855
1  -7.78982621  6.30479927  10.37194195
8  -0.97519140  -1.80207727  7.46582035
8  -8.38960774  -1.33264796  7.46186990
8  -7.01973896  1.34712599  10.47322031
8  -2.33445817  -4.39789683  10.55492819
74  -3.40053426  0.69054662  6.47751959
74  -5.98883033  -3.82028842  6.55805197
74  -3.60970521  0.86882808  11.41666155
74  -5.76134080  -3.86533629  11.48267778
74  -2.42942247  -2.59251121  6.40246675
74  -6.93667960  -0.53444814  6.37020507
74  -6.81532292  -0.25056714  11.56123166
74  -2.54321639  -2.73947662  11.60305788
8  -3.16600149  1.87228802  5.29533225
8  -6.12220335  -5.07105313  5.41624175
8  -2.68106842  1.70894920  12.56597734
8  -6.68107942  -4.66554232  12.66511956
8  -2.65810687  -0.91726178  5.58879376
8  -6.70009540  -2.26877821  5.62035914
8  -5.30555466  0.54980686  12.35925796
8  -4.04968691  -3.53407059  12.40779798
8  0.31415786  -0.01915774  9.27877267
8  -9.69083383  -3.04232307  9.32598348
8  -6.34431417  3.42964710  8.66444393
8  -3.01125375  -6.49475089  8.74374591
8  -1.77822956  0.74498134  7.47302798
8  -7.59694619  -3.88328103  7.54106043
8  -4.48934308  2.19506210  10.42600424
8  -4.87291728  -5.23373941  10.53032241
8  -1.60006310  -3.53473454  5.25534205
8  -7.81347149  0.27751725  5.17758013
8  -8.03737587  -0.16599189  12.73809020
8  -1.30710529  -2.86034519  12.76246047
74  -1.24441766  -0.53610006  8.83815077
74  -8.13127258  -2.53971614  8.87390698
74  -5.86937402  1.85753854  9.04328406
74  -3.49500498  -4.92040116  9.16390950
8  -4.21122656  -3.11399098  6.07342630
8  -5.14855355  -0.06324650  6.01789962
8  -6.16722051  -1.99945472  11.90869584
8  -3.17164636  -0.99149057  11.91926983
8  -4.35012147  1.57920269  7.83316658
8  -5.00806325  -4.68343953  7.92441067
8  -2.31959560  0.56324872  10.07692046
8  -7.04415487  -3.61549166  10.13006595
8  -2.56975134  -3.91023963  7.86884459
8  -6.80644525  0.79384602  7.80265142
8  -7.82181307  -1.17780436  10.13989380
8  -1.55456013  -1.87392638  10.13955356
8  -3.35333271  -1.16065696  8.01136765
8  -6.01534814  -1.96110466  8.03382156
8  -5.11280563  -0.21055807  9.94268724
8  -4.23615957  -2.84973077  9.97554797
19  -3.21314488  -6.13325227  5.64710533
19  -0.11440122  0.04534839  12.33041840
19  -9.28380686  -2.82541013  12.42771523
23  -4.68148359  -1.54232040  8.98953454

-c -h -mn -co -ag -ni -ni 0
def2svp
****
-n -o -f -cl 0
6-31+g(d)
****
-ce 0
sdd
****

-ce 0
sdd



