%chk=b.chk
%nprocshared=56 
%mem=96gb 
# def2svp wb97xd scrf=(smd,solvent=acetonitrile) g09default scf=(xqc,maxcycle=64) force  guess=read   nosymm

 Title Card 

-1 1
17  -9.64732071  8.27350738  10.54466334
6  -8.34532952  4.25095349  12.21390235
6  -9.14051841  3.93188538  11.09708671
6  -10.05314331  2.86705793  11.21536382
6  -10.20592611  2.18187105  12.41597894
6  -9.43651037  2.53534137  13.52545353
6  -8.49411837  3.56022971  13.41314856
1  -7.59896777  5.04562891  12.14443260
1  -10.65650767  2.58713954  10.34728464
1  -10.92695412  1.36393339  12.48646627
1  -9.55909401  2.00304544  14.47126357
1  -7.87068012  3.82369351  14.27130710
6  -9.08003066  4.67344334  9.83640405
6  -8.41491742  5.82716752  9.61771784
1  -9.66327656  4.24228307  9.01497232
1  -8.42968882  6.29470787  8.63192418
1  -7.79116647  6.30387117  10.37329174
8  -0.97517421  -1.80265043  7.46546674
8  -8.38881503  -1.33245051  7.46192005
8  -7.01915033  1.34680204  10.47356498
8  -2.33451747  -4.39805970  10.55498519
74  -3.39980581  0.69119516  6.47828335
74  -5.98877768  -3.82087582  6.55818361
74  -3.60905580  0.86895710  11.41595473
74  -5.76148013  -3.86609367  11.48264192
74  -2.42972588  -2.59221290  6.40203517
74  -6.93573936  -0.53479656  6.36958926
74  -6.81442673  -0.25098277  11.56184618
74  -2.54351412  -2.73994405  11.60351482
8  -3.16521990  1.87325680  5.29654075
8  -6.12232105  -5.07153445  5.41626659
8  -2.68033154  1.70885610  12.56540627
8  -6.68104406  -4.66656557  12.66488036
8  -2.65845803  -0.91715657  5.58885750
8  -6.69982907  -2.26911291  5.62032301
8  -5.30458815  0.54959987  12.35911177
8  -4.04979237  -3.53463250  12.40798223
8  0.31509404  -0.02042021  9.27827157
8  -9.69058722  -3.04195455  9.32540456
8  -6.34481283  3.42923598  8.66458853
8  -3.01096951  -6.49495790  8.74379339
8  -1.77753077  0.74435922  7.47303138
8  -7.59688757  -3.88323864  7.54109294
8  -4.48885789  2.19494887  10.42580327
8  -4.87278035  -5.23413518  10.53033864
8  -1.60029182  -3.53377336  5.25429856
8  -7.81236068  0.27679711  5.17659787
8  -8.03593046  -0.16540796  12.73910472
8  -1.30810076  -2.86086706  12.76356030
74  -1.24369608  -0.53721604  8.83831417
74  -8.13103642  -2.53944680  8.87384820
74  -5.86973592  1.85716315  9.04333318
74  -3.49479937  -4.92054914  9.16379087
8  -4.21142610  -3.11438889  6.07341665
8  -5.14797435  -0.06317253  6.01813700
8  -6.16696671  -1.99994711  11.90922680
8  -3.17149908  -0.99183480  11.91853335
8  -4.34961579  1.57910906  7.83374777
8  -5.00829366  -4.68402773  7.92455584
8  -2.31866564  0.56292477  10.07659074
8  -7.04400709  -3.61566768  10.13011126
8  -2.57007817  -3.91034216  7.86867610
8  -6.80604557  0.79357087  7.80263569
8  -7.82128975  -1.17798011  10.14037925
8  -1.55383101  -1.87455275  10.13979401
8  -3.35307353  -1.16089825  8.01174889
8  -6.01468125  -1.96156217  8.03381573
8  -5.11225200  -0.21085647  9.94257882
8  -4.23634793  -2.85002551  9.97569944
19  -3.21342547  -6.13331966  5.64729590
19  -0.11536236  0.04385641  12.32926845
19  -9.28360231  -2.82454630  12.42683469
23  -4.68113974  -1.54264425  8.98964347

-c -h -mn -co -ag -ni -ni 0
def2svp
****
-n -o -f -cl 0
6-31+g(d)
****
-ce 0
sdd
****

-ce 0
sdd



