%chk=b.chk
%nprocshared=56 
%mem=96gb 
# def2svp wb97xd scrf=(smd,solvent=acetonitrile) g09default scf=(xqc,maxcycle=64) force  guess=read   nosymm

 Title Card 

-1 1
17  -9.64456284  8.27213185  10.54325303
6  -8.34654388  4.25235045  12.21326856
6  -9.14151916  3.93230969  11.09654558
6  -10.05455584  2.86801788  11.21554970
6  -10.20620475  2.18247832  12.41608424
6  -9.43516032  2.53509715  13.52472810
6  -8.49405389  3.56117483  13.41235468
1  -7.60195729  5.04871472  12.14411685
1  -10.65966673  2.58962140  10.34818760
1  -10.92788953  1.36518893  12.48724313
1  -9.55555627  2.00130833  14.46995004
1  -7.87085609  3.82550637  14.27044113
6  -9.08204790  4.67404822  9.83602530
6  -8.41756540  5.82836237  9.61880361
1  -9.66615818  4.24364922  9.01479258
1  -8.43498268  6.29952660  8.63489305
1  -7.79253162  6.30259793  10.37483573
8  -0.97516246  -1.80335006  7.46503574
8  -8.38787699  -1.33220320  7.46198431
8  -7.01844482  1.34639215  10.47400248
8  -2.33457184  -4.39822832  10.55505092
74  -3.39892538  0.69197440  6.47928331
74  -5.98874713  -3.82164218  6.55836705
74  -3.60818912  0.86918280  11.41514604
74  -5.76161526  -3.86698098  11.48248347
74  -2.43005947  -2.59194237  6.40135615
74  -6.93458764  -0.53522952  6.36881119
74  -6.81332099  -0.25151683  11.56263314
74  -2.54394954  -2.74047937  11.60405569
8  -3.16423274  1.87453308  5.29802175
8  -6.12248883  -5.07215164  5.41633671
8  -2.67945662  1.70876709  12.56467766
8  -6.68106385  -4.66788648  12.66463738
8  -2.65887985  -0.91699792  5.58891780
8  -6.69950156  -2.26952846  5.62028743
8  -5.30339751  0.54932810  12.35894451
8  -4.04993054  -3.53529006  12.40818872
8  0.31622682  -0.02199982  9.27768736
8  -9.69044131  -3.04148743  9.32475483
8  -6.34545229  3.42867773  8.66478919
8  -3.01057204  -6.49515336  8.74386514
8  -1.77668121  0.74361612  7.47305542
8  -7.59682516  -3.88319065  7.54116185
8  -4.48827516  2.19481767  10.42556440
8  -4.87261756  -5.23459682  10.53032584
8  -1.60066714  -3.53258100  5.25309505
8  -7.81100269  0.27590895  5.17540447
8  -8.03418026  -0.16472595  12.74036352
8  -1.30925487  -2.86148293  12.76493637
74  -1.24278507  -0.53859727  8.83851804
74  -8.13062473  -2.53901911  8.87373508
74  -5.87023059  1.85674197  9.04338826
74  -3.49448773  -4.92075927  9.16363212
8  -4.21167998  -3.11487320  6.07336783
8  -5.14725470  -0.06304067  6.01838836
8  -6.16669392  -2.00057150  11.90990462
8  -3.17126206  -0.99221537  11.91769934
8  -4.34901095  1.57901944  7.83444198
8  -5.00854685  -4.68477052  7.92469340
8  -2.31750378  0.56255053  10.07621425
8  -7.04388716  -3.61589573  10.13019170
8  -2.57046348  -3.91048190  7.86842544
8  -6.80556105  0.79324413  7.80260562
8  -7.82068002  -1.17819815  10.14099888
8  -1.55293939  -1.87529355  10.14010487
8  -3.35273432  -1.16118203  8.01217646
8  -6.01388238  -1.96209858  8.03381794
8  -5.11158862  -0.21119772  9.94245946
8  -4.23656155  -2.85035944  9.97585411
19  -3.21377331  -6.13343929  5.64751409
19  -0.11651394  0.04200329  12.32790975
19  -9.28339873  -2.82355840  12.42577008
23  -4.68075653  -1.54305369  8.98976852

-c -h -mn -co -ag -ni -ni 0
def2svp
****
-n -o -f -cl 0
6-31+g(d)
****
-ce 0
sdd
****

-ce 0
sdd



