%chk=a.chk
%nprocshared=56 
%mem=96gb 
# def2svp wb97xd scrf=(smd,solvent=acetonitrile) g09default scf=(xqc,maxcycle=64) force  guess=read   nosymm

 Title Card 

-1 1
17  -9.64306140  8.27115232  10.54220412
6  -8.34765278  4.25354145  12.21272742
6  -9.14248728  3.93276548  11.09612499
6  -10.05581186  2.86885146  11.21569685
6  -10.20641603  2.18293814  12.41616839
6  -9.43394901  2.53484354  13.52408805
6  -8.49397598  3.56195001  13.41162545
1  -7.60450493  5.05131105  12.14386072
1  -10.66235400  2.59161455  10.34897946
1  -10.92865412  1.36623106  12.48793269
1  -9.55250219  1.99982446  14.46881304
1  -7.87098185  3.82705429  14.26966107
6  -9.08380701  4.67469630  9.83571812
6  -8.41942397  5.82920249  9.61961216
1  -9.66876662  4.24502273  9.01470569
1  -8.43882195  6.30327804  8.63721516
1  -7.79302243  6.30115618  10.37592276
8  -0.97518026  -1.80394142  7.46465042
8  -8.38713104  -1.33196908  7.46202805
8  -7.01787829  1.34601293  10.47441076
8  -2.33459683  -4.39830508  10.55508633
74  -3.39815918  0.69272106  6.48016579
74  -5.98876854  -3.82236647  6.55858391
74  -3.60743553  0.86943276  11.41440435
74  -5.76185639  -3.86781571  11.48235220
74  -2.43045613  -2.59165042  6.40072206
74  -6.93355552  -0.53560787  6.36810657
74  -6.81233795  -0.25198891  11.56337978
74  -2.54429573  -2.74084299  11.60462391
8  -3.16334165  1.87573439  5.29940979
8  -6.12269864  -5.07276017  5.41646345
8  -2.67868577  1.70885074  12.56411636
8  -6.68104920  -4.66903413  12.66432832
8  -2.65922561  -0.91682411  5.58892755
8  -6.69922953  -2.26990182  5.62028169
8  -5.30236183  0.54906543  12.35882532
8  -4.05007644  -3.53578837  12.40831710
8  0.31722588  -0.02339799  9.27725818
8  -9.69031373  -3.04094488  9.32421477
8  -6.34613016  3.42825473  8.66497500
8  -3.01009323  -6.49526637  8.74395199
8  -1.77596056  0.74302137  7.47312687
8  -7.59678281  -3.88316092  7.54127647
8  -4.48780513  2.19473338  10.42538361
8  -4.87247705  -5.23494531  10.53022555
8  -1.60103733  -3.53167732  5.25198673
8  -7.80986736  0.27512644  5.17436881
8  -8.03271740  -0.16419216  12.74149006
8  -1.31026243  -2.86194980  12.76607245
74  -1.24203022  -0.53982575  8.83866441
74  -8.13043714  -2.53857298  8.87367844
74  -5.87068590  1.85624429  9.04350084
74  -3.49410483  -4.92089435  9.16347305
8  -4.21192570  -3.11529159  6.07323663
8  -5.14665558  -0.06284654  6.01852169
8  -6.16653135  -2.00114946  11.91054149
8  -3.17094697  -0.99244071  11.91712399
8  -4.34854044  1.57900199  7.83502712
8  -5.00870784  -4.68545604  7.92473571
8  -2.31645974  0.56229739  10.07595914
8  -7.04389070  -3.61610844  10.13030121
8  -2.57077188  -3.91063317  7.86811462
8  -6.80516740  0.79297013  7.80255219
8  -7.82020629  -1.17838513  10.14158175
8  -1.55218631  -1.87586990  10.14040786
8  -3.35245397  -1.16139952  8.01249099
8  -6.01328734  -1.96253270  8.03381611
8  -5.11104132  -0.21147293  9.94236789
8  -4.23671572  -2.85062617  9.97596851
19  -3.21408682  -6.13362713  5.64766994
19  -0.11745515  0.04035350  12.32685318
19  -9.28332140  -2.82288644  12.42488086
23  -4.68043344  -1.54331289  8.98984003

-c -h -mn -co -ag -ni -ni 0
def2svp
****
-n -o -f -cl 0
6-31+g(d)
****
-ce 0
sdd
****

-ce 0
sdd



