%chk=a.chk
%nprocshared=56 
%mem=96gb 
# def2svp wb97xd scrf=(smd,solvent=acetonitrile) g09default scf=(xqc,maxcycle=64) force  guess=read   nosymm

 Title Card 

-1 1
17  -9.64203341  8.27027054  10.54117292
6  -8.34893148  4.25495720  12.21206762
6  -9.14373316  3.93337430  11.09565683
6  -10.05728156  2.86980378  11.21589482
6  -10.20658375  2.18345068  12.41627788
6  -9.43257641  2.53450591  13.52329516
6  -8.49384769  3.56277072  13.41085613
1  -7.60739868  5.05416426  12.14358168
1  -10.66539648  2.59373861  10.34988810
1  -10.92948906  1.36733761  12.48873488
1  -9.54904191  1.99816499  14.46754478
1  -7.87110221  3.82877831  14.26870677
6  -9.08587135  4.67553466  9.83543590
6  -8.42123401  5.83007854  9.62040126
1  -9.67188245  4.24677659  9.01467144
1  -8.44260793  6.30721419  8.63964801
1  -7.79308766  6.29931822  10.37693197
8  -0.97521196  -1.80462256  7.46420855
8  -8.38634098  -1.33167812  7.46207062
8  -7.01726813  1.34555665  10.47490024
8  -2.33458636  -4.39834844  10.55511281
74  -3.39727750  0.69361054  6.48118402
74  -5.98883395  -3.82323378  6.55890138
74  -3.60648759  0.86979712  11.41361446
74  -5.76212338  -3.86874969  11.48207775
74  -2.43096668  -2.59133580  6.39992087
74  -6.93235883  -0.53605799  6.36727597
74  -6.81122665  -0.25256379  11.56431570
74  -2.54477348  -2.74119119  11.60525552
8  -3.16229134  1.87716836  5.30105688
8  -6.12299031  -5.07352473  5.41665925
8  -2.67783360  1.70901978  12.56345693
8  -6.68108764  -4.67040950  12.66398862
8  -2.65958776  -0.91659211  5.58890555
8  -6.69891971  -2.27033112  5.62028742
8  -5.30117600  0.54873651  12.35871866
8  -4.05025900  -3.53630103  12.40843446
8  0.31832237  -0.02505321  9.27681483
8  -9.69026449  -3.04023576  9.32365731
8  -6.34693347  3.42762063  8.66524754
8  -3.00942388  -6.49540597  8.74404655
8  -1.77515338  0.74238654  7.47325166
8  -7.59674984  -3.88313473  7.54145242
8  -4.48729298  2.19465143  10.42519452
8  -4.87231428  -5.23530716  10.53004624
8  -1.60152361  -3.53074480  5.25071477
8  -7.80859211  0.27424282  5.17320355
8  -8.03107093  -0.16365802  12.74277252
8  -1.31131246  -2.86243653  12.76737477
74  -1.24111971  -0.54125108  8.83883111
74  -8.13023389  -2.53796760  8.87361447
74  -5.87130720  1.85581465  9.04360875
74  -3.49359360  -4.92095119  9.16330363
8  -4.21221490  -3.11576474  6.07302092
8  -5.14597433  -0.06256220  6.01860974
8  -6.16640759  -2.00183546  11.91129732
8  -3.17049850  -0.99261934  11.91659642
8  -4.34804367  1.57902421  7.83567159
8  -5.00883266  -4.68627297  7.92471257
8  -2.31524986  0.56204776  10.07572714
8  -7.04399146  -3.61636488  10.13046018
8  -2.57108463  -3.91083560  7.86768306
8  -6.80473499  0.79266961  7.80247104
8  -7.81971020  -1.17858835  10.14227844
8  -1.55134413  -1.87647964  10.14077986
8  -3.35212073  -1.16162357  8.01279209
8  -6.01267539  -1.96298373  8.03382144
8  -5.11045523  -0.21173267  9.94230013
8  -4.23685980  -2.85088006  9.97604970
19  -3.21445063  -6.13390884  5.64781817
19  -0.11846840  0.03842803  12.32575165
19  -9.28331977  -2.82225344  12.42389319
23  -4.68007784  -1.54363144  8.98989689

-c -h -mn -co -ag -ni -ni 0
def2svp
****
-n -o -f -cl 0
6-31+g(d)
****
-ce 0
sdd
****

-ce 0
sdd



