%chk=a.chk
%nprocshared=56 
%mem=96gb 
# def2svp wb97xd scrf=(smd,solvent=acetonitrile) g09default scf=(xqc,maxcycle=64) force  guess=read   nosymm

 Title Card 

-1 1
17  -9.64161441  8.26946357  10.54011355
6  -8.35058854  4.25658699  12.21137871
6  -9.14538589  3.93423831  11.09513685
6  -10.05912354  2.87097197  11.21614435
6  -10.20682453  2.18397285  12.41634242
6  -9.43082572  2.53407497  13.52242625
6  -8.49370229  3.56375327  13.40974671
1  -7.61085648  5.05756965  12.14324527
1  -10.66906689  2.59615191  10.35101837
1  -10.93040665  1.36862192  12.48972347
1  -9.54486398  1.99619257  14.46599739
1  -7.87116706  3.83082894  14.26753899
6  -9.08844554  4.67671567  9.83511791
6  -8.42307991  5.83099082  9.62124659
1  -9.67585614  4.24916346  9.01472438
1  -8.44648716  6.31158815  8.64231084
1  -7.79256824  6.29687214  10.37786135
8  -0.97526356  -1.80545676  7.46367530
8  -8.38545152  -1.33130179  7.46211877
8  -7.01657042  1.34497893  10.47552214
8  -2.33452768  -4.39834167  10.55512760
74  -3.39621880  0.69470113  6.48250307
74  -5.98898060  -3.82437612  6.55932599
74  -3.60531238  0.87030660  11.41264150
74  -5.76252493  -3.86991589  11.48169061
74  -2.43159425  -2.59102218  6.39876966
74  -6.93088034  -0.53660067  6.36624081
74  -6.80981956  -0.25327542  11.56548866
74  -2.54534027  -2.74152144  11.60611160
8  -3.16095915  1.87902920  5.30309309
8  -6.12341015  -5.07449905  5.41699982
8  -2.67678713  1.70935574  12.56267914
8  -6.68113840  -4.67211767  12.66350921
8  -2.65998848  -0.91626681  5.58884297
8  -6.69853892  -2.27086673  5.62031023
8  -5.29972823  0.54830161  12.35862953
8  -4.05050350  -3.53686194  12.40853701
8  0.31967177  -0.02712601  9.27634086
8  -9.69032996  -3.03926187  9.32304947
8  -6.34804847  3.42697306  8.66558034
8  -3.00850525  -6.49543110  8.74420042
8  -1.77418299  0.74166275  7.47346230
8  -7.59672866  -3.88310831  7.54172237
8  -4.48670301  2.19457441  10.42498556
8  -4.87210701  -5.23569913  10.52974768
8  -1.60224281  -3.52967102  5.24921904
8  -7.80705752  0.27317365  5.17180696
8  -8.02913470  -0.16309752  12.74437893
8  -1.31255925  -2.86296879  12.76888446
74  -1.24003617  -0.54302559  8.83900309
74  -8.13000100  -2.53709241  8.87353368
74  -5.87206750  1.85508783  9.04381749
74  -3.49281348  -4.92109941  9.16305019
8  -4.21258651  -3.11633027  6.07268992
8  -5.14514422  -0.06214495  6.01864230
8  -6.16631856  -2.00271578  11.91224361
8  -3.16985190  -0.99275654  11.91610575
8  -4.34748977  1.57910483  7.83642220
8  -5.00891232  -4.68729537  7.92461066
8  -2.31374720  0.56178176  10.07550921
8  -7.04421956  -3.61669108  10.13068773
8  -2.57142226  -3.91110345  7.86708316
8  -6.80423281  0.79232366  7.80234553
8  -7.81916053  -1.17882941  10.14315514
8  -1.55034803  -1.87717037  10.14125905
8  -3.35170883  -1.16187989  8.01309143
8  -6.01200296  -1.96348772  8.03383655
8  -5.10976045  -0.21205647  9.94223020
8  -4.23698136  -2.85117652  9.97612216
19  -3.21490109  -6.13433179  5.64796582
19  -0.11962637  0.03602295  12.32454162
19  -9.28342197  -2.82164810  12.42272056
23  -4.67969428  -1.54392130  8.98994248

-c -h -mn -co -ag -ni -ni 0
def2svp
****
-n -o -f -cl 0
6-31+g(d)
****
-ce 0
sdd
****

-ce 0
sdd



