%chk=a.chk
%nprocshared=56 
%mem=96gb 
# def2svp wb97xd scrf=(smd,solvent=acetonitrile) g09default scf=(xqc,maxcycle=64) force  guess=read   nosymm

 Title Card 

-1 1
17  -9.64116809  8.26865072  10.53899131
6  -8.35239295  4.25845100  12.21050901
6  -9.14723475  3.93520438  11.09460695
6  -10.06116732  2.87226322  11.21639685
6  -10.20702368  2.18457119  12.41651084
6  -9.42898416  2.53359622  13.52137101
6  -8.49351452  3.56478276  13.40868959
1  -7.61465453  5.06124226  12.14287954
1  -10.67308699  2.59876630  10.35226883
1  -10.93139230  1.36996713  12.49079677
1  -9.54031708  1.99404616  14.46435205
1  -7.87123046  3.83302937  14.26620440
6  -9.09129834  4.67805312  9.83480181
6  -8.42514089  5.83203114  9.62214343
1  -9.68027829  4.25184027  9.01480490
1  -8.45069202  6.31633246  8.64517426
1  -7.79203830  6.29429622  10.37881983
8  -0.97530683  -1.80639521  7.46309152
8  -8.38447914  -1.33087030  7.46216081
8  -7.01581175  1.34434108  10.47620203
8  -2.33444611  -4.39835257  10.55513732
74  -3.39502305  0.69594513  6.48385972
74  -5.98912420  -3.82558828  6.55983225
74  -3.60404232  0.87082365  11.41153946
74  -5.76299685  -3.87124108  11.48131630
74  -2.43239469  -2.59055205  6.39767938
74  -6.92924306  -0.53719765  6.36510895
74  -6.80829596  -0.25405506  11.56680653
74  -2.54594314  -2.74188937  11.60704524
8  -3.15950871  1.88097376  5.30537063
8  -6.12388263  -5.07559856  5.41735863
8  -2.67560661  1.70974388  12.56184263
8  -6.68115840  -4.67395262  12.66292061
8  -2.66039520  -0.91593144  5.58877582
8  -6.69811387  -2.27144706  5.62033199
8  -5.29814412  0.54781898  12.35854543
8  -4.05077082  -3.53747707  12.40865473
8  0.32116661  -0.02941248  9.27582515
8  -9.69025395  -3.03812841  9.32235752
8  -6.34924089  3.42618107  8.66597101
8  -3.00745457  -6.49558530  8.74432859
8  -1.77311845  0.74087552  7.47371065
8  -7.59670409  -3.88307633  7.54201438
8  -4.48605578  2.19448115  10.42475917
8  -4.87186243  -5.23613490  10.52941177
8  -1.60293839  -3.52863242  5.24745218
8  -7.80537156  0.27203179  5.17029082
8  -8.02699637  -0.16252389  12.74610454
8  -1.31390146  -2.86354963  12.77049798
74  -1.23887462  -0.54499813  8.83917018
74  -8.12993582  -2.53618952  8.87350930
74  -5.87292353  1.85439792  9.04402371
74  -3.49197975  -4.92110917  9.16281166
8  -4.21298229  -3.11695269  6.07232877
8  -5.14424374  -0.06170111  6.01868536
8  -6.16621408  -2.00367427  11.91325378
8  -3.16915043  -0.99290743  11.91558674
8  -4.34689682  1.57919275  7.83724570
8  -5.00898208  -4.68841278  7.92449277
8  -2.31211823  0.56147421  10.07528384
8  -7.04446275  -3.61704198  10.13092416
8  -2.57176667  -3.91141144  7.86642580
8  -6.80368748  0.79194450  7.80220433
8  -7.81854652  -1.17907525  10.14410064
8  -1.54926900  -1.87793300  10.14178129
8  -3.35127874  -1.16216353  8.01343038
8  -6.01130091  -1.96403130  8.03384619
8  -5.10901375  -0.21240008  9.94217359
8  -4.23710288  -2.85149785  9.97619708
19  -3.21539204  -6.13480051  5.64812258
19  -0.12086693  0.03337375  12.32323876
19  -9.28354524  -2.82098333  12.42143432
23  -4.67921052  -1.54425706  8.98998196

-c -h -mn -co -ag -ni -ni 0
def2svp
****
-n -o -f -cl 0
6-31+g(d)
****
-ce 0
sdd
****

-ce 0
sdd



