%chk=b.chk
%nprocshared=56 
%mem=96gb 
# def2svp wb97xd scrf=(smd,solvent=acetonitrile) g09default scf=(xqc,maxcycle=64) force  guess=read   nosymm

 Title Card 

-1 1
17  -9.64160388  8.26813603  10.53806366
6  -8.35432766  4.26036435  12.20968860
6  -9.14936257  3.93635086  11.09407722
6  -10.06335047  2.87360798  11.21673097
6  -10.20722071  2.18513869  12.41661964
6  -9.42704595  2.53306449  13.52033877
6  -8.49331246  3.56580759  13.40751017
1  -7.61855509  5.06493133  12.14250123
1  -10.67723879  2.60127809  10.35358510
1  -10.93229619  1.37123413  12.49191838
1  -9.53565156  1.99188479  14.46266133
1  -7.87119715  3.83522150  14.26476900
6  -9.09436770  4.67961780  9.83455948
6  -8.42690613  5.83303466  9.62289385
1  -9.68512672  4.25494949  9.01501295
1  -8.45424378  6.32075232  8.64780743
1  -7.79088961  6.29147644  10.37943840
8  -0.97535740  -1.80738910  7.46249428
8  -8.38355738  -1.33039198  7.46219799
8  -7.01507546  1.34364858  10.47693833
8  -2.33429019  -4.39830907  10.55513455
74  -3.39379881  0.69721865  6.48535244
74  -5.98935200  -3.82691862  6.56043185
74  -3.60262329  0.87146582  11.41046979
74  -5.76346552  -3.87257952  11.48074628
74  -2.43320258  -2.59020505  6.39631362
74  -6.92752428  -0.53783424  6.36391799
74  -6.80668509  -0.25490220  11.56824066
74  -2.54664992  -2.74218465  11.60802668
8  -3.15793605  1.88310132  5.30774544
8  -6.12445370  -5.07679693  5.41784198
8  -2.67441413  1.71023914  12.56092363
8  -6.68125083  -4.67595766  12.66231519
8  -2.66075567  -0.91552799  5.58867153
8  -6.69766095  -2.27205723  5.62036595
8  -5.29649725  0.54728013  12.35851107
8  -4.05106655  -3.53805506  12.40874180
8  0.32265824  -0.03189239  9.27533196
8  -9.69041301  -3.03684620  9.32175339
8  -6.35056551  3.42530480  8.66643330
8  -3.00623199  -6.49563242  8.74448758
8  -1.77203103  0.74011769  7.47403721
8  -7.59670915  -3.88304296  7.54237964
8  -4.48542205  2.19440295  10.42454524
8  -4.87159131  -5.23654124  10.52898079
8  -1.60383181  -3.52760459  5.24571942
8  -7.80363399  0.27087603  5.16874768
8  -8.02482790  -0.16205323  12.74791727
8  -1.31516839  -2.86409706  12.77213425
74  -1.23760012  -0.54707392  8.83933736
74  -8.12976122  -2.53506629  8.87344798
74  -5.87389041  1.85368658  9.04425640
74  -3.49095553  -4.92115509  9.16254123
8  -4.21340419  -3.11757713  6.07189082
8  -5.14329060  -0.06116794  6.01865802
8  -6.16616491  -2.00471276  11.91431009
8  -3.16832438  -0.99298673  11.91521930
8  -4.34633269  1.57933024  7.83805995
8  -5.00896305  -4.68959416  7.92429028
8  -2.31042077  0.56117612  10.07511389
8  -7.04483455  -3.61741975  10.13120168
8  -2.57205739  -3.91174731  7.86566891
8  -6.80314611  0.79157011  7.80203752
8  -7.81796440  -1.17931074  10.14510052
8  -1.54819018  -1.87867546  10.14234397
8  -3.35080497  -1.16243757  8.01369419
8  -6.01063211  -1.96452721  8.03387866
8  -5.10826783  -0.21273167  9.94215668
8  -4.23716443  -2.85178628  9.97621855
19  -3.21590687  -6.13537299  5.64824818
19  -0.12204893  0.03054409  12.32204650
19  -9.28379421  -2.82046636  12.42012969
23  -4.67877707  -1.54459307  8.99000271

-c -h -mn -co -ag -ni -ni 0
def2svp
****
-n -o -f -cl 0
6-31+g(d)
****
-ce 0
sdd
****

-ce 0
sdd



