%chk=a.chk
%nprocshared=56 
%mem=96gb 
# def2svp wb97xd scrf=(smd,solvent=acetonitrile) g09default scf=(xqc,maxcycle=64) force  guess=read   nosymm

 Title Card 

-1 1
17  -9.87047596  7.57803114  10.38063373
6  -8.31246905  4.25450313  12.23947951
6  -9.07292899  3.93919028  11.10014892
6  -10.00876506  2.89270122  11.19555728
6  -10.18392363  2.19181114  12.38408636
6  -9.42608773  2.52214343  13.50801871
6  -8.48562904  3.55087455  13.42806736
1  -7.57386083  5.05978454  12.19879080
1  -10.59834229  2.62876621  10.31246965
1  -10.91222219  1.37827278  12.43363086
1  -9.55914709  1.97190261  14.44156689
1  -7.88289284  3.80832690  14.30328376
6  -8.92301819  4.63794757  9.82741507
6  -8.10494823  5.67135897  9.58705696
1  -9.61109953  4.32121703  9.03863334
1  -8.04968546  6.12059013  8.59431849
1  -7.37406304  6.04146860  10.31097997
8  -0.99685358  -1.76016502  7.44984443
8  -8.42405463  -1.32751786  7.45634076
8  -7.06996367  1.34824862  10.50286209
8  -2.32937645  -4.35951201  10.57202726
74  -3.42717432  0.75204184  6.51824309
74  -6.01960540  -3.82887289  6.59663375
74  -3.63852812  0.92832423  11.39125232
74  -5.77429075  -3.87289847  11.46166416
74  -2.47173976  -2.54057551  6.37251476
74  -6.94759713  -0.53678358  6.34844519
74  -6.82671486  -0.24988063  11.60343150
74  -2.57738883  -2.69208078  11.63272523
8  -3.20848323  1.94776094  5.35213204
8  -6.13515726  -5.08446218  5.46440627
8  -2.70655207  1.76421695  12.53419200
8  -6.69789403  -4.67457490  12.63570017
8  -2.68821950  -0.86176592  5.59351568
8  -6.72440907  -2.27476401  5.63471297
8  -5.32618434  0.57781744  12.36334863
8  -4.06665746  -3.51944856  12.41002986
8  0.29373490  -0.00457552  9.28573138
8  -9.71542647  -3.01459846  9.34783482
8  -6.44542557  3.41452829  8.66024745
8  -2.96741561  -6.44548734  8.73658191
8  -1.80382772  0.77850422  7.48789113
8  -7.62416229  -3.86939982  7.56059588
8  -4.55340448  2.22995374  10.42759578
8  -4.85552942  -5.21518754  10.52529348
8  -1.65204649  -3.47972044  5.22419263
8  -7.81649118  0.26708150  5.15097955
8  -8.03597683  -0.18384904  12.78463326
8  -1.34336469  -2.78956783  12.79036493
74  -1.25391009  -0.52985006  8.83757995
74  -8.17055973  -2.49719201  8.88134838
74  -5.96493782  1.85812877  9.05656824
74  -3.45331235  -4.88047090  9.16965174
8  -4.24321940  -3.07222136  6.09070364
8  -5.17024960  -0.05309073  6.03914897
8  -6.16683406  -1.99085992  11.90351092
8  -3.21453608  -0.95812353  11.91040241
8  -4.39999325  1.58788372  7.86736184
8  -5.01013937  -4.64560901  7.94970775
8  -2.36612230  0.58746303  10.06063182
8  -7.04621930  -3.59409919  10.12068367
8  -2.57321961  -3.85931413  7.87049785
8  -6.85815200  0.78286944  7.81149689
8  -7.84321882  -1.16128497  10.15206895
8  -1.57870986  -1.84435568  10.14296169
8  -3.39329263  -1.13540579  8.02867116
8  -6.02666768  -1.93813766  8.05439415
8  -5.14458247  -0.20407534  9.93599295
8  -4.24884081  -2.80865441  9.96962400
19  -3.24525180  -6.07484273  5.69829010
19  -0.19270970  0.01966737  12.31727580
19  -9.22253108  -2.92019157  12.37118522
23  -4.70582873  -1.51832206  8.99601788

-c -h -mn -co -ag -ni -ni 0
def2svp
****
-n -o -f -cl 0
6-31+g(d)
****
-ce 0
sdd
****

-ce 0
sdd



