%chk=b.chk
%nprocshared=56 
%mem=96gb 
# def2svp wb97xd scrf=(smd,solvent=acetonitrile) g09default scf=(xqc,maxcycle=64) force  guess=read   nosymm

 Title Card 

-1 1
17  -9.64267347  8.26784478  10.53724127
6  -8.35653801  4.26242272  12.20880692
6  -9.15183357  3.93774086  11.09358812
6  -10.06581404  2.87510485  11.21708577
6  -10.20744145  2.18568908  12.41677102
6  -9.42493886  2.53249094  13.51923533
6  -8.49309610  3.56688608  13.40618684
1  -7.62277414  5.06887777  12.14206918
1  -10.68175722  2.60387681  10.35506922
1  -10.93314279  1.37248791  12.49312922
1  -9.53062296  1.98957956  14.46085439
1  -7.87104843  3.83750132  14.26315181
6  -9.09782436  4.68154449  9.83434262
6  -8.42865449  5.83407509  9.62360408
1  -9.69068491  4.25865964  9.01536666
1  -8.45755601  6.32520252  8.65035997
1  -7.78929806  6.28841568  10.37982073
8  -0.97540095  -1.80851083  7.46184854
8  -8.38260407  -1.32983442  7.46222139
8  -7.01431006  1.34286906  10.47776151
8  -2.33405827  -4.39824438  10.55511864
74  -3.39244273  0.69862890  6.48697820
74  -5.98964113  -3.82841250  6.56113629
74  -3.60109380  0.87215828  11.40924107
74  -5.76406281  -3.87411277  11.48013799
74  -2.43416307  -2.58978814  6.39483134
74  -6.92562592  -0.53850989  6.36260068
74  -6.80487591  -0.25582697  11.56983866
74  -2.54737216  -2.74245036  11.60917336
8  -3.15617417  1.88540965  5.31037449
8  -6.12514675  -5.07813637  5.41846663
8  -2.67305798  1.71089672  12.55994360
8  -6.68130567  -4.67813876  12.66151862
8  -2.66107201  -0.91507423  5.58854166
8  -6.69714589  -2.27272925  5.62041006
8  -5.29469905  0.54666417  12.35852410
8  -4.05140337  -3.53865896  12.40881505
8  0.32435005  -0.03467031  9.27483608
8  -9.69055609  -3.03529008  9.32112913
8  -6.35211020  3.42443996  8.66695529
8  -3.00478665  -6.49565150  8.74466273
8  -1.77084629  0.73932961  7.47446464
8  -7.59673358  -3.88299719  7.54281607
8  -4.48475709  2.19432313  10.42432977
8  -4.87125885  -5.23696186  10.52844456
8  -1.60483805  -3.52663892  5.24376827
8  -7.80172196  0.26965217  5.16710635
8  -8.02249916  -0.16166241  12.74991195
8  -1.31650779  -2.86465701  12.77380027
74  -1.23629157  -0.54941244  8.83945613
74  -8.12974580  -2.53377730  8.87343955
74  -5.87493105  1.85276549  9.04457401
74  -3.48971269  -4.92118471  9.16223377
8  -4.21386740  -3.11824328  6.07138327
8  -5.14224674  -0.06056178  6.01859554
8  -6.16612618  -2.00587751  11.91542906
8  -3.16737741  -0.99303999  11.91494270
8  -4.34576523  1.57951012  7.83892612
8  -5.00886443  -4.69088081  7.92402557
8  -2.30858202  0.56083894  10.07497436
8  -7.04529736  -3.61783143  10.13150048
8  -2.57230619  -3.91212887  7.86480898
8  -6.80257939  0.79117099  7.80183948
8  -7.81734686  -1.17953783  10.14617837
8  -1.54705687  -1.87946920  10.14296248
8  -3.35030924  -1.16273755  8.01394355
8  -6.00997961  -1.96502735  8.03391335
8  -5.10746551  -0.21311725  9.94216581
8  -4.23716901  -2.85210536  9.97622863
19  -3.21647086  -6.13605824  5.64835876
19  -0.12322992  0.02737422  12.32088342
19  -9.28415664  -2.82001289  12.41871676
23  -4.67827995  -1.54487966  8.99000775

-c -h -mn -co -ag -ni -ni 0
def2svp
****
-n -o -f -cl 0
6-31+g(d)
****
-ce 0
sdd
****

-ce 0
sdd



