%chk=a.chk
%nprocshared=56 
%mem=96gb 
# def2svp wb97xd scrf=(smd,solvent=acetonitrile) g09default scf=(xqc,maxcycle=64) force  guess=read   nosymm

 Title Card 

-1 1
17  -9.64467407  8.26786954  10.53659011
6  -8.35902508  4.26475894  12.20780264
6  -9.15480405  3.93944116  11.09310175
6  -10.06860866  2.87678364  11.21754071
6  -10.20762666  2.18628155  12.41696389
6  -9.42268467  2.53184315  13.51799895
6  -8.49283260  3.56800182  13.40479840
1  -7.62740845  5.07308074  12.14156074
1  -10.68672682  2.60654795  10.35673842
1  -10.93391017  1.37365394  12.49444428
1  -9.52516806  1.98710915  14.45892544
1  -7.87075240  3.83984406  14.26126419
6  -9.10179683  4.68389896  9.83422714
6  -8.43028806  5.83521858  9.62418375
1  -9.69717215  4.26318260  9.01592813
1  -8.46042687  6.32956595  8.65274350
1  -7.78706863  6.28503445  10.37987821
8  -0.97543813  -1.80978967  7.46113937
8  -8.38163442  -1.32917559  7.46222065
8  -7.01351815  1.34197103  10.47870043
8  -2.33371286  -4.39814972  10.55509292
74  -3.39093253  0.70019635  6.48875854
74  -5.99001919  -3.83004899  6.56205237
74  -3.59931766  0.87298232  11.40794583
74  -5.76468979  -3.87579265  11.47930506
74  -2.43529083  -2.58936832  6.39313404
74  -6.92349947  -0.53928743  6.36116283
74  -6.80288088  -0.25688509  11.57169633
74  -2.54824699  -2.74268268  11.61041824
8  -3.15416962  1.88793912  5.31331374
8  -6.12601437  -5.07969930  5.41924216
8  -2.67157580  1.71170774  12.55879421
8  -6.68140483  -4.68062755  12.66059254
8  -2.66132072  -0.91453675  5.58837917
8  -6.69655526  -2.27346897  5.62046596
8  -5.29271966  0.54595633  12.35860247
8  -4.05178458  -3.53929299  12.40887071
8  0.32614198  -0.03787232  9.27429989
8  -9.69083889  -3.03341178  9.32053334
8  -6.35384816  3.42329913  8.66763780
8  -3.00301506  -6.49570354  8.74484047
8  -1.76955604  0.73851969  7.47502239
8  -7.59679637  -3.88293326  7.54334950
8  -4.48406512  2.19424030  10.42411632
8  -4.87084848  -5.23739926  10.52777165
8  -1.60603438  -3.52572895  5.24160027
8  -7.79961891  0.26837441  5.16532409
8  -8.01994582  -0.16139535  12.75209432
8  -1.31782222  -2.86523459  12.77557628
74  -1.23476597  -0.55203174  8.83956917
74  -8.12975719  -2.53222448  8.87344152
74  -5.87618594  1.85192200  9.04490333
74  -3.48822293  -4.92109195  9.16192450
8  -4.21437348  -3.11894568  6.07078652
8  -5.14107785  -0.05985544  6.01848413
8  -6.16610504  -2.00718838  11.91661471
8  -3.16627838  -0.99304822  11.91480420
8  -4.34519241  1.57973226  7.83985319
8  -5.00865006  -4.69229271  7.92367393
8  -2.30660118  0.56045267  10.07487179
8  -7.04589657  -3.61828564  10.13182855
8  -2.57248255  -3.91255675  7.86381152
8  -6.80198178  0.79073457  7.80161501
8  -7.81669222  -1.17973984  10.14735232
8  -1.54587811  -1.88032199  10.14364407
8  -3.34975438  -1.16305301  8.01414091
8  -6.00932525  -1.96550289  8.03397415
8  -5.10661216  -0.21350354  9.94224760
8  -4.23710194  -2.85240582  9.97618438
19  -3.21709432  -6.13689304  5.64844466
19  -0.12437357  0.02377684  12.31979700
19  -9.28468017  -2.81966659  12.41717681
23  -4.67774735  -1.54523750  8.98998993

-c -h -mn -co -ag -ni -ni 0
def2svp
****
-n -o -f -cl 0
6-31+g(d)
****
-ce 0
sdd
****

-ce 0
sdd



