%chk=a.chk
%nprocshared=56 
%mem=96gb 
# def2svp wb97xd scrf=(smd,solvent=acetonitrile) g09default scf=(xqc,maxcycle=64) force  guess=read   nosymm

 Title Card 

-1 1
17  -9.64730142  8.26810848  10.53605217
6  -8.36178965  4.26722436  12.20683280
6  -9.15817358  3.94141656  11.09261763
6  -10.07168493  2.87861651  11.21809017
6  -10.20787309  2.18687431  12.41711152
6  -9.42025239  2.53117058  13.51678555
6  -8.49257499  3.56921218  13.40316823
1  -7.63237217  5.07756885  12.14095514
1  -10.69208721  2.60932346  10.35857302
1  -10.93457011  1.37476187  12.49583320
1  -9.51935938  1.98450216  14.45686087
1  -7.87028636  3.84222942  14.25920084
6  -9.10621408  4.68664452  9.83416592
6  -8.43190479  5.83645385  9.62470871
1  -9.70445919  4.26840019  9.01667485
1  -8.46306616  6.33392173  8.65498044
1  -7.78444743  6.28145136  10.37971203
8  -0.97546134  -1.81119496  7.46038354
8  -8.38063560  -1.32844797  7.46220226
8  -7.01269480  1.34098422  10.47973016
8  -2.33327881  -4.39804020  10.55506807
74  -3.38932063  0.70181057  6.49076271
74  -5.99048395  -3.83188439  6.56304041
74  -3.59741305  0.87387523  11.40653297
74  -5.76538099  -3.87761707  11.47835438
74  -2.43645054  -2.58902647  6.39115896
74  -6.92122120  -0.54008674  6.35960243
74  -6.80065652  -0.25802097  11.57368139
74  -2.54915101  -2.74289106  11.61182143
8  -3.15194717  1.89069264  5.31642200
8  -6.12701596  -5.08134578  5.42022039
8  -2.66994902  1.71265134  12.55752820
8  -6.68149675  -4.68334454  12.65950779
8  -2.66151254  -0.91393056  5.58820482
8  -6.69589243  -2.27427077  5.62053301
8  -5.29059207  0.54518139  12.35873548
8  -4.05219952  -3.53998071  12.40891121
8  0.32811305  -0.04140606  9.27373122
8  -9.69125787  -3.03128153  9.31996233
8  -6.35583531  3.42224317  8.66838050
8  -3.00104324  -6.49560046  8.74506709
8  -1.76816757  0.73767604  7.47568782
8  -7.59689270  -3.88284348  7.54395965
8  -4.48335201  2.19415464  10.42390102
8  -4.87036764  -5.23785856  10.52699778
8  -1.60744914  -3.52477142  5.23934284
8  -7.79731362  0.26703002  5.16345648
8  -8.01724306  -0.16122502  12.75448735
8  -1.31918791  -2.86583888  12.77738524
74  -1.23317310  -0.55490184  8.83964027
74  -8.12975088  -2.53043702  8.87344538
74  -5.87748149  1.85077386  9.04534201
74  -3.48646423  -4.92114796  9.16154692
8  -4.21492097  -3.11966742  6.07014771
8  -5.13979372  -0.05909157  6.01835278
8  -6.16606466  -2.00862938  11.91783174
8  -3.16508142  -0.99306102  11.91475158
8  -4.34460396  1.57997978  7.84082741
8  -5.00834846  -4.69377544  7.92328470
8  -2.30450651  0.55999752  10.07477256
8  -7.04657560  -3.61877042  10.13215886
8  -2.57260397  -3.91299966  7.86273749
8  -6.80135555  0.79026681  7.80137706
8  -7.81599613  -1.17992751  10.14858508
8  -1.54467127  -1.88124965  10.14436133
8  -3.34916035  -1.16340426  8.01430585
8  -6.00865117  -1.96597799  8.03404778
8  -5.10567945  -0.21397168  9.94235456
8  -4.23696382  -2.85274802  9.97613220
19  -3.21776619  -6.13783654  5.64851911
19  -0.12547199  0.01981635  12.31877496
19  -9.28532418  -2.81937880  12.41551835
23  -4.67720132  -1.54553923  8.98997827

-c -h -mn -co -ag -ni -ni 0
def2svp
****
-n -o -f -cl 0
6-31+g(d)
****
-ce 0
sdd
****

-ce 0
sdd



