%chk=a.chk
%nprocshared=56 
%mem=96gb 
# def2svp wb97xd scrf=(smd,solvent=acetonitrile) g09default scf=(xqc,maxcycle=64) force  guess=read   nosymm

 Title Card 

-1 1
17  -9.65420340  8.26911033  10.53527675
6  -8.36798345  4.27276468  12.20459744
6  -9.16597743  3.94610663  11.09177036
6  -10.07859662  2.88274088  11.21930582
6  -10.20832596  2.18813530  12.41761164
6  -9.41512988  2.52976575  13.51404462
6  -8.49198984  3.57174843  13.39978881
1  -7.64322450  5.08720333  12.13949325
1  -10.70381047  2.61517972  10.36269786
1  -10.93559666  1.37672460  12.49875807
1  -9.50683632  1.97891228  14.45245411
1  -7.86894328  3.84702124  14.25446326
6  -9.11622978  4.69321275  9.83424188
6  -8.43509681  5.83918124  9.62557076
1  -9.72121095  4.28075231  9.01869578
1  -8.46772435  6.34252861  8.65905747
1  -7.77823914  6.27381448  10.37872693
8  -0.97546095  -1.81434205  7.45870696
8  -8.37855484  -1.32678404  7.46206637
8  -7.01096741  1.33875192  10.48204075
8  -2.33217349  -4.39783417  10.55502405
74  -3.38572233  0.70538146  6.49498948
74  -5.99156567  -3.83575850  6.56548168
74  -3.59320359  0.87579691  11.40344960
74  -5.76686575  -3.88167437  11.47612841
74  -2.43921554  -2.58817555  6.38701893
74  -6.91618798  -0.54186429  6.35625611
74  -6.79579445  -0.26053978  11.57817230
74  -2.55116472  -2.74330162  11.61487082
8  -3.14698522  1.89647389  5.32332478
8  -6.12941806  -5.08506972  5.42251168
8  -2.66633536  1.71486115  12.55465360
8  -6.68163405  -4.68936873  12.65688258
8  -2.66171447  -0.91257331  5.58783493
8  -6.69438865  -2.27601230  5.62069664
8  -5.28595111  0.54348486  12.35914038
8  -4.05310190  -3.54152991  12.40895940
8  0.33240372  -0.04938475  9.27245696
8  -9.69215540  -3.02624246  9.31880894
8  -6.36023537  3.41962649  8.67023155
8  -2.99637703  -6.49557175  8.74549593
8  -1.76513613  0.73590598  7.47731915
8  -7.59717924  -3.88259467  7.54536459
8  -4.48187598  2.19395984  10.42347813
8  -4.86919948  -5.23887839  10.52517047
8  -1.61055659  -3.52305163  5.23417372
8  -7.79223713  0.26424927  5.15940459
8  -8.01129923  -0.16116601  12.75968254
8  -1.32193553  -2.86714289  12.78119151
74  -1.22968069  -0.56128965  8.83969357
74  -8.13003230  -2.52642375  8.87356416
74  -5.88042616  1.84855972  9.04629118
74  -3.48246498  -4.92092177  9.16082317
8  -4.21609760  -3.12116469  6.06875709
8  -5.13696010  -0.05744932  6.01806504
8  -6.16590153  -2.01179623  11.92029850
8  -3.16246869  -0.99308357  11.91487616
8  -4.34339042  1.58050595  7.84295419
8  -5.00750942  -4.69691372  7.92241788
8  -2.30010407  0.55890054  10.07458124
8  -7.04811607  -3.61980175  10.13278519
8  -2.57266665  -3.91393851  7.86037707
8  -6.80002890  0.78920042  7.80089420
8  -7.81445441  -1.18021684  10.15119156
8  -1.54222103  -1.88332201  10.14586158
8  -3.34790340  -1.16417401  8.01457177
8  -6.00728116  -1.96691016  8.03423668
8  -5.10366031  -0.21495926  9.94272854
8  -4.23653631  -2.85345112  9.97597360
19  -3.21923772  -6.14000974  5.64863444
19  -0.12746722  0.01094530  12.31695924
19  -9.28693350  -2.81895651  12.41187476
23  -4.67592784  -1.54627180  8.98992488

-c -h -mn -co -ag -ni -ni 0
def2svp
****
-n -o -f -cl 0
6-31+g(d)
****
-ce 0
sdd
****

-ce 0
sdd



