%chk=b.chk
%nprocshared=56 
%mem=96gb 
# def2svp wb97xd scrf=(smd,solvent=acetonitrile) g09default scf=(xqc,maxcycle=64) force  guess=read   nosymm

 Title Card 

-1 1
17  -9.65857415  8.26999082  10.53521462
6  -8.37123489  4.27555288  12.20355786
6  -9.17025195  3.94878566  11.09150200
6  -10.08219387  2.88489434  11.21998311
6  -10.20856086  2.18870994  12.41787470
6  -9.41266735  2.52913707  13.51274985
6  -8.49171971  3.57297843  13.39805522
1  -7.64861248  5.09190733  12.13863543
1  -10.70967272  2.61794692  10.36484735
1  -10.93572117  1.37733066  12.50011366
1  -9.50074159  1.97623605  14.45029544
1  -7.86795421  3.84905079  14.25196156
6  -9.12154208  4.69697379  9.83446356
6  -8.43643887  5.84054033  9.62575914
1  -9.73027583  4.28773831  9.02004968
1  -8.46917005  6.34607212  8.66041770
1  -7.77479273  6.27020685  10.37769228
8  -0.97541061  -1.81596072  7.45785756
8  -8.37759886  -1.32591365  7.46192484
8  -7.01016305  1.33758604  10.48324170
8  -2.33149437  -4.39776037  10.55502226
74  -3.38391365  0.70706008  6.49713059
74  -5.99218961  -3.83770121  6.56679577
74  -3.59111895  0.87671545  11.40188811
74  -5.76759578  -3.88374535  11.47491144
74  -2.44062053  -2.58781919  6.38490665
74  -6.91369858  -0.54269405  6.35460359
74  -6.79329058  -0.26179545  11.58043751
74  -2.55212072  -2.74346056  11.61644120
8  -3.14439818  1.89926369  5.32672631
8  -6.13077813  -5.08690046  5.42389596
8  -2.66446478  1.71608325  12.55314211
8  -6.68163802  -4.69244052  12.65534660
8  -2.66163902  -0.91185545  5.58766770
8  -6.69358652  -2.27687782  5.62079436
8  -5.28364910  0.54264377  12.35944155
8  -4.05354764  -3.54236232  12.40894499
8  0.33461366  -0.05355260  9.27181006
8  -9.69268703  -3.02344064  9.31834383
8  -6.36258620  3.41840375  8.67126976
8  -2.99383247  -6.49546135  8.74571678
8  -1.76362045  0.73507826  7.47827685
8  -7.59739216  -3.88242128  7.54613058
8  -4.48121479  2.19386312  10.42330514
8  -4.86852517  -5.23940253  10.52415366
8  -1.61223849  -3.52236706  5.23156555
8  -7.78962611  0.26295955  5.15746126
8  -8.00835925  -0.16139914  12.76230663
8  -1.32316374  -2.86778654  12.78292107
74  -1.22804153  -0.56457668  8.83960229
74  -8.13029336  -2.52428203  8.87368065
74  -5.88184493  1.84730424  9.04686495
74  -3.48025022  -4.92085089  9.16045858
8  -4.21667751  -3.12183065  6.06809070
8  -5.13550835  -0.05666632  6.01792576
8  -6.16573596  -2.01340533  11.92135597
8  -3.16117363  -0.99311981  11.91513246
8  -4.34283654  1.58075390  7.84399535
8  -5.00694642  -4.69835762  7.92199878
8  -2.29805053  0.55824758  10.07448942
8  -7.04891428  -3.62029230  10.13300641
8  -2.57253366  -3.91435972  7.85921468
8  -6.79940007  0.78863744  7.80069101
8  -7.81367490  -1.18027261  10.15240543
8  -1.54116745  -1.88441103  10.14653827
8  -3.34730764  -1.16458205  8.01462131
8  -6.00667237  -1.96730143  8.03434739
8  -5.10263826  -0.21550006  9.94299439
8  -4.23620072  -2.85382071  9.97588807
19  -3.21997356  -6.14117857  5.64865814
19  -0.12809436  0.00634577  12.31642258
19  -9.28790279  -2.81890835  12.41003618
23  -4.67526586  -1.54657276  8.98990410

-c -h -mn -co -ag -ni -ni 0
def2svp
****
-n -o -f -cl 0
6-31+g(d)
****
-ce 0
sdd
****

-ce 0
sdd



