%chk=a.chk
%nprocshared=56 
%mem=96gb 
# def2svp wb97xd scrf=(smd,solvent=acetonitrile) g09default scf=(xqc,maxcycle=64) force  guess=read   nosymm

 Title Card 

-1 1
17  -9.66369776  8.27117527  10.53543574
6  -8.37455568  4.27841076  12.20253257
6  -9.17482926  3.95173606  11.09138681
6  -10.08587131  2.88712225  11.22072428
6  -10.20875301  2.18926231  12.41816547
6  -9.41036232  2.52857347  13.51147192
6  -8.49144708  3.57413912  13.39640720
1  -7.65391648  5.09643558  12.13767618
1  -10.71546815  2.62055590  10.36703476
1  -10.93549385  1.37756427  12.50134018
1  -9.49487825  1.97369949  14.44821555
1  -7.86669410  3.85070377  14.24934301
6  -9.12710320  4.70107937  9.83488663
6  -8.43753459  5.84191589  9.62569798
1  -9.73986956  4.29539112  9.02171414
1  -8.46984180  6.34888476  8.66114589
1  -7.77109530  6.26683495  10.37618620
8  -0.97531462  -1.81759201  7.45699520
8  -8.37673149  -1.32502178  7.46170808
8  -7.00941622  1.33638377  10.48447357
8  -2.33070897  -4.39773459  10.55504533
74  -3.38210660  0.70868994  6.49916434
74  -5.99287036  -3.83948038  6.56830378
74  -3.58900197  0.87761681  11.40042681
74  -5.76821221  -3.88577607  11.47351089
74  -2.44205992  -2.58753646  6.38281652
74  -6.91122288  -0.54354670  6.35307991
74  -6.79082233  -0.26306413  11.58274108
74  -2.55310936  -2.74360586  11.61793801
8  -3.14176716  1.90183564  5.33010426
8  -6.13227507  -5.08877262  5.42538414
8  -2.66260968  1.71733385  12.55151598
8  -6.68163506  -4.69557504  12.65369635
8  -2.66140528  -0.91111329  5.58752552
8  -6.69275804  -2.27771117  5.62090385
8  -5.28139462  0.54183171  12.35982468
8  -4.05396628  -3.54325017  12.40889916
8  0.33668420  -0.05787551  9.27111354
8  -9.69335531  -3.02044041  9.31800926
8  -6.36494247  3.41697364  8.67247938
8  -2.99107936  -6.49542081  8.74589486
8  -1.76213124  0.73430890  7.47934199
8  -7.59767125  -3.88221017  7.54693627
8  -4.48063155  2.19376039  10.42317093
8  -4.86777913  -5.23995128  10.52305903
8  -1.61399474  -3.52185858  5.22894524
8  -7.78703279  0.26183072  5.15554425
8  -8.00543751  -0.16187077  12.76487827
8  -1.32417862  -2.86843098  12.78454445
74  -1.22631321  -0.56785060  8.83947587
74  -8.13055411  -2.52204297  8.87380561
74  -5.88331045  1.84629024  9.04742436
74  -3.47794854  -4.92062976  9.16016020
8  -4.21722771  -3.12240880  6.06746155
8  -5.13403875  -0.05593658  6.01780035
8  -6.16548524  -2.01499438  11.92223115
8  -3.15991094  -0.99317022  11.91555878
8  -4.34232835  1.58096505  7.84501609
8  -5.00626414  -4.69966215  7.92160285
8  -2.29617883  0.55749855  10.07439710
8  -7.04972007  -3.62075097  10.13313709
8  -2.57224554  -3.91472962  7.85808115
8  -6.79879965  0.78804364  7.80053980
8  -7.81289157  -1.18023558  10.15352754
8  -1.54030112  -1.88554538  10.14713037
8  -3.34671601  -1.16499182  8.01457941
8  -6.00610067  -1.96760214  8.03450247
8  -5.10163317  -0.21601226  9.94335876
8  -4.23577139  -2.85415658  9.97577233
19  -3.22069986  -6.14240334  5.64865170
19  -0.12835584  0.00166439  12.31624149
19  -9.28900657  -2.81900136  12.40820047
23  -4.67462698  -1.54695732  8.98988207

-c -h -mn -co -ag -ni -ni 0
def2svp
****
-n -o -f -cl 0
6-31+g(d)
****
-ce 0
sdd
****

-ce 0
sdd



