%chk=b.chk
%nprocshared=56 
%mem=96gb 
# def2svp wb97xd scrf=(smd,solvent=acetonitrile) g09default scf=(xqc,maxcycle=64) force  guess=read   nosymm

 Title Card 

-1 1
17  -9.66982675  8.27257097  10.53569826
6  -8.37854216  4.28182948  12.20143319
6  -9.18038632  3.95531772  11.09122484
6  -10.09028480  2.88980822  11.22171390
6  -10.20901860  2.18994705  12.41838045
6  -9.40757035  2.52790504  13.51004068
6  -8.49113605  3.57558013  13.39431043
1  -7.66027213  5.10189645  12.13650067
1  -10.72244337  2.62372206  10.36963670
1  -10.93516058  1.37779849  12.50277819
1  -9.48786537  1.97068000  14.44568778
1  -7.86511478  3.85263462  14.24621817
6  -9.13384450  4.70603910  9.83543753
6  -8.43887006  5.84358859  9.62559184
1  -9.75147700  4.30467041  9.02376720
1  -8.47069784  6.35222468  8.66196469
1  -7.76671080  6.26283017  10.37435566
8  -0.97518389  -1.81952974  7.45595929
8  -8.37568730  -1.32397596  7.46144395
8  -7.00851669  1.33495124  10.48595205
8  -2.32976568  -4.39772636  10.55508874
74  -3.37998465  0.71047886  6.50176825
74  -5.99370990  -3.84171128  6.56999662
74  -3.58651274  0.87866517  11.39865447
74  -5.76894013  -3.88820154  11.47182984
74  -2.44365877  -2.58731138  6.38017411
74  -6.90832664  -0.54447185  6.35120397
74  -6.78780004  -0.26456168  11.58542118
74  -2.55422292  -2.74378016  11.61977675
8  -3.13858374  1.90500554  5.33400560
8  -6.13406426  -5.09088800  5.42728587
8  -2.66035828  1.71882214  12.54956848
8  -6.68161657  -4.69933566  12.65168858
8  -2.66111737  -0.91021692  5.58736874
8  -6.69176082  -2.27870567  5.62104475
8  -5.27870229  0.54087393  12.36029310
8  -4.05445404  -3.54435322  12.40883363
8  0.33922254  -0.06305368  9.27027982
8  -9.69420883  -3.01684055  9.31763513
8  -6.36784807  3.41551525  8.67388804
8  -2.98782798  -6.49516360  8.74614990
8  -1.76034276  0.73337686  7.48061434
8  -7.59801954  -3.88194814  7.54790586
8  -4.47994179  2.19363699  10.42301413
8  -4.86688335  -5.24062651  10.52174747
8  -1.61619110  -3.52115109  5.22591950
8  -7.78386043  0.26044702  5.15331330
8  -8.00197057  -0.16245695  12.76801152
8  -1.32543360  -2.86922187  12.78644986
74  -1.22432147  -0.57177817  8.83929608
74  -8.13080075  -2.51932724  8.87394260
74  -5.88494136  1.84477268  9.04818535
74  -3.47510905  -4.92063185  9.15973429
8  -4.21789280  -3.12308038  6.06673754
8  -5.13226054  -0.05509141  6.01766677
8  -6.16514009  -2.01690527  11.92324402
8  -3.15841016  -0.99326252  11.91607107
8  -4.34171021  1.58120536  7.84622917
8  -5.00545049  -4.70116680  7.92116703
8  -2.29394501  0.55656176  10.07426830
8  -7.05065227  -3.62129298  10.13326413
8  -2.57189134  -3.91514685  7.85675512
8  -6.79807137  0.78732580  7.80037775
8  -7.81194846  -1.18019267  10.15484970
8  -1.53929905  -1.88694003  10.14781830
8  -3.34601424  -1.16551178  8.01453109
8  -6.00540952  -1.96797565  8.03468500
8  -5.10039798  -0.21669591  9.94376810
8  -4.23523730  -2.85460878  9.97566027
19  -3.22157184  -6.14386602  5.64864973
19  -0.12860168  -0.00395676  12.31607859
19  -9.29033580  -2.81910664  12.40598448
23  -4.67387180  -1.54732130  8.98988652

-c -h -mn -co -ag -ni -ni 0
def2svp
****
-n -o -f -cl 0
6-31+g(d)
****
-ce 0
sdd
****

-ce 0
sdd



