%chk=a.chk
%nprocshared=56 
%mem=96gb 
# def2svp wb97xd scrf=(smd,solvent=acetonitrile) g09default scf=(xqc,maxcycle=64) force  guess=read   nosymm

 Title Card 

-1 1
17  -9.89537132  7.63567584  10.39637085
6  -8.31229437  4.25397274  12.24166706
6  -9.07107341  3.93319825  11.09502854
6  -10.00744852  2.89280168  11.19996941
6  -10.18532126  2.19324824  12.38479570
6  -9.42639752  2.52056299  13.51344483
6  -8.48799912  3.55106220  13.42836386
1  -7.57626314  5.05760000  12.19881953
1  -10.59760085  2.62864857  10.31458013
1  -10.91183030  1.37899045  12.43397189
1  -9.55890801  1.96983219  14.44441351
1  -7.88343980  3.80844897  14.30307114
6  -8.91200619  4.62677100  9.82090523
6  -8.09155230  5.64955742  9.57586805
1  -9.61168917  4.31758491  9.03226942
1  -8.05456417  6.12357913  8.59490477
1  -7.38124688  6.04007699  10.31169252
8  -1.00911614  -1.75957099  7.45454789
8  -8.41138808  -1.32834347  7.45993358
8  -7.06174919  1.33968856  10.49876740
8  -2.33717875  -4.35025793  10.56792921
74  -3.43094441  0.75454674  6.51120699
74  -6.01437026  -3.82868582  6.59302480
74  -3.63526191  0.92360599  11.39543739
74  -5.77819963  -3.86929848  11.46558994
74  -2.47135768  -2.54449038  6.37490313
74  -6.95039153  -0.53080882  6.34718104
74  -6.83031463  -0.25334966  11.60127577
74  -2.57238210  -2.69010373  11.63156836
8  -3.20836445  1.95194462  5.35031178
8  -6.13583996  -5.08960630  5.46129888
8  -2.70285387  1.76801195  12.53684147
8  -6.70128812  -4.67741348  12.63774642
8  -2.69228535  -0.86286943  5.60247351
8  -6.72065918  -2.27169674  5.64413439
8  -5.32427378  0.57263372  12.35546010
8  -4.06784026  -3.51538005  12.40138809
8  0.30002705  -0.00455493  9.28723287
8  -9.72256162  -3.01476946  9.34931601
8  -6.43864164  3.41767600  8.65071787
8  -2.96389302  -6.44983119  8.73546748
8  -1.81198239  0.77223756  7.49041532
8  -7.61662803  -3.86306843  7.56429603
8  -4.55503327  2.21960794  10.42358569
8  -4.85469050  -5.20531070  10.52164749
8  -1.65003768  -3.48269183  5.21794695
8  -7.81761271  0.27047034  5.14539767
8  -8.03981964  -0.18535189  12.79083697
8  -1.34018450  -2.78928205  12.79604675
74  -1.25640313  -0.52503197  8.84208373
74  -8.16828086  -2.50210898  8.88486050
74  -5.95885688  1.85909068  9.05152402
74  -3.45798304  -4.88225734  9.16509508
8  -4.24307739  -3.07585188  6.08932258
8  -5.17068553  -0.04979790  6.03732447
8  -6.17021685  -1.99260912  11.90462353
8  -3.21077484  -0.95618666  11.91135268
8  -4.40168757  1.59028012  7.86538238
8  -5.00756241  -4.64857469  7.94787381
8  -2.36211737  0.58744470  10.06270079
8  -7.05006191  -3.59444160  10.12229198
8  -2.57418260  -3.85983777  7.86840172
8  -6.85697395  0.78276465  7.80998406
8  -7.84306521  -1.16267668  10.15443969
8  -1.57871892  -1.84376077  10.14493250
8  -3.39677547  -1.12816649  8.02339758
8  -6.02315401  -1.94700081  8.05048190
8  -5.13454158  -0.20294720  9.94296310
8  -4.25689035  -2.81163615  9.97500949
19  -3.24339160  -6.08121805  5.69363491
19  -0.18646427  0.02239159  12.32196514
19  -9.22931626  -2.92201173  12.37653163
23  -4.70547244  -1.51956420  8.99563704

-c -h -mn -co -ag -ni -ni 0
def2svp
****
-n -o -f -cl 0
6-31+g(d)
****
-ce 0
sdd
****

-ce 0
sdd



