%chk=b.chk
%nprocshared=56 
%mem=96gb 
# def2svp wb97xd scrf=(smd,solvent=acetonitrile) g09default scf=(xqc,maxcycle=64) force  guess=read   nosymm

 Title Card 

-1 1
17  -9.68791647  8.27700032  10.53737946
6  -8.38900935  4.29081345  12.19885132
6  -9.19560636  3.96569287  11.09174882
6  -10.10189301  2.89712949  11.22431693
6  -10.20952935  2.19149534  12.41907486
6  -9.40115057  2.52662901  13.50640763
6  -8.49034337  3.57899417  13.38929487
1  -7.67581256  5.11511925  12.13310584
1  -10.73967093  2.63142092  10.37633692
1  -10.93254914  1.37673114  12.50554572
1  -9.47132026  1.96375713  14.43954235
1  -7.85976618  3.85567267  14.23788178
6  -9.15211414  4.72040376  9.83774594
6  -8.44155526  5.84764179  9.62429807
1  -9.78325924  4.33112833  9.03058453
1  -8.47037102  6.35760171  8.66122412
1  -7.75516784  6.25377782  10.36771784
8  -0.97455426  -1.82429220  7.45326575
8  -8.37336389  -1.32135862  7.46040447
8  -7.00649786  1.33128435  10.48980478
8  -2.32701041  -4.39815678  10.55536431
74  -3.37467578  0.71454279  6.50785542
74  -5.99600047  -3.84661101  6.57477517
74  -3.58044627  0.88082775  11.39446779
74  -5.77037370  -3.89429866  11.46717530
74  -2.44779419  -2.58683462  6.37400913
74  -6.90131438  -0.54655379  6.34701840
74  -6.78033953  -0.26826086  11.59207587
74  -2.55676398  -2.74427323  11.62412705
8  -3.13049633  1.91176973  5.34351758
8  -6.13904676  -5.09601369  5.43268774
8  -2.65453912  1.72259327  12.54439411
8  -6.68129284  -4.70877094  12.64579860
8  -2.65973476  -0.90797957  5.58713547
8  -6.68920209  -2.28096604  5.62152472
8  -5.27220948  0.53870322  12.36182579
8  -4.05544550  -3.54756220  12.40848445
8  0.34548164  -0.07647906  9.26809432
8  -9.69641667  -3.00685873  9.31720595
8  -6.37514827  3.41155092  8.67803563
8  -2.97885953  -6.49468465  8.74651406
8  -1.75592746  0.73115880  7.48419590
8  -7.59921678  -3.88113029  7.55045110
8  -4.47852224  2.19324329  10.42281534
8  -4.86435120  -5.24259247  10.51813154
8  -1.62183435  -3.52019014  5.21808523
8  -7.77583574  0.25765230  5.14798278
8  -7.99334413  -0.16501473  12.77568286
8  -1.32790274  -2.87137590  12.79066654
74  -1.21965696  -0.58165801  8.83848228
74  -8.13184824  -2.51239368  8.87447308
74  -5.88876296  1.84136681  9.05031913
74  -3.46763300  -4.92025188  9.15886680
8  -4.21944359  -3.12435631  6.06519050
8  -5.12774411  -0.05342260  6.01750957
8  -6.16363356  -2.02155911  11.92482977
8  -3.15483895  -0.99364114  11.91804786
8  -4.34031832  1.58156773  7.84922896
8  -5.00302636  -4.70406149  7.92039752
8  -2.28910372  0.55363297  10.07390560
8  -7.05274455  -3.62243746  10.13300889
8  -2.57031809  -3.91594079  7.85367792
8  -6.79628629  0.78531873  7.80027398
8  -7.80950044  -1.17968125  10.15768792
8  -1.53771980  -1.89082762  10.14909073
8  -3.34439808  -1.16695374  8.01414525
8  -6.00389647  -1.96863165  8.03530776
8  -5.09730736  -0.21845293  9.94514114
8  -4.23348469  -2.85580549  9.97540188
19  -3.22373476  -6.14771124  5.64855669
19  -0.12734575  -0.01833909  12.31741540
19  -9.29418600  -2.81987944  12.40033355
23  -4.67183215  -1.54836776  8.98995564

-c -h -mn -co -ag -ni -ni 0
def2svp
****
-n -o -f -cl 0
6-31+g(d)
****
-ce 0
sdd
****

-ce 0
sdd



