%chk=a.chk
%nprocshared=56 
%mem=96gb 
# def2svp wb97xd scrf=(smd,solvent=acetonitrile) g09default scf=(xqc,maxcycle=64) force  guess=read   nosymm

 Title Card 

-1 1
17  -9.70065797  8.28011703  10.53904689
6  -8.39568939  4.29669907  12.19763911
6  -9.20603111  3.97324762  11.09275484
6  -10.10935723  2.90217388  11.22620116
6  -10.20974047  2.19241705  12.41928393
6  -9.39756751  2.52613183  13.50424419
6  -8.48981444  3.58102197  13.38625954
1  -7.68496412  5.12295056  12.13079688
1  -10.75003716  2.63621340  10.38042339
1  -10.92951857  1.37479248  12.50642256
1  -9.46205171  1.96008080  14.43583539
1  -7.85534931  3.85609069  14.23244833
6  -9.16451290  4.73056285  9.84000598
6  -8.44287961  5.85006907  9.62258970
1  -9.80493773  4.34974482  9.03617809
1  -8.46890081  6.35866772  8.65869039
1  -7.74793546  6.24909246  10.36211758
8  -0.97391603  -1.82703921  7.45154738
8  -8.37216146  -1.31984866  7.45953151
8  -7.00538111  1.32903629  10.49223011
8  -2.32508531  -4.39890292  10.55568118
74  -3.37159480  0.71642361  6.51140027
74  -5.99753827  -3.84903352  6.57796970
74  -3.57685840  0.88171098  11.39228900
74  -5.77079179  -3.89791768  11.46389292
74  -2.45010535  -2.58688016  6.37036323
74  -6.89732973  -0.54752557  6.34491727
74  -6.77587127  -0.27048699  11.59591723
74  -2.55804357  -2.74470282  11.62653231
8  -3.12556343  1.91501419  5.34880515
8  -6.14234302  -5.09882541  5.43647514
8  -2.65086271  1.72470830  12.54103356
8  -6.68097171  -4.71449042  12.64164828
8  -2.65844411  -0.90668650  5.58712139
8  -6.68765353  -2.28209300  5.62196549
8  -5.26851027  0.53758555  12.36301424
8  -4.05577708  -3.54992316  12.40808995
8  0.34901734  -0.08493463  9.26670045
8  -9.69799412  -3.00022962  9.31746525
8  -6.37945797  3.40909093  8.68095905
8  -2.97293327  -6.49429458  8.74645206
8  -1.75331031  0.72981571  7.48656499
8  -7.60021679  -3.88051546  7.55203800
8  -4.47781896  2.19284931  10.42287158
8  -4.86263536  -5.24406712  10.51571141
8  -1.62548921  -3.51998931  5.21341392
8  -7.77088884  0.25652743  5.14501078
8  -7.98819970  -0.16744190  12.78023620
8  -1.32890774  -2.87291760  12.79282321
74  -1.21689049  -0.58753557  8.83783792
74  -8.13244433  -2.50806946  8.87480895
74  -5.89070622  1.83941822  9.05187524
74  -3.46281992  -4.92008796  9.15839212
8  -4.22027655  -3.12479066  6.06450605
8  -5.12491410  -0.05283314  6.01761437
8  -6.16208746  -2.02424182  11.92500166
8  -3.15281588  -0.99407009  11.91973800
8  -4.33953246  1.58155066  7.85100831
8  -5.00135700  -4.70500971  7.92028518
8  -2.28670485  0.55133371  10.07366119
8  -7.05368471  -3.62292817  10.13235999
8  -2.56884930  -3.91621219  7.85204913
8  -6.79514693  0.78394463  7.80050461
8  -7.80793584  -1.17907787  10.15905415
8  -1.53750305  -1.89357704  10.14950165
8  -3.34347739  -1.16799939  8.01373641
8  -6.00305025  -1.96883776  8.03588201
8  -5.09538617  -0.21963934  9.94618264
8  -4.23209096  -2.85664015  9.97527597
19  -3.22504366  -6.15013630  5.64845837
19  -0.12501760  -0.02724519  12.31965664
19  -9.29686877  -2.82069047  12.39677232
23  -4.67059104  -1.54912331  8.99010494

-c -h -mn -co -ag -ni -ni 0
def2svp
****
-n -o -f -cl 0
6-31+g(d)
****
-ce 0
sdd
****

-ce 0
sdd



