%chk=a.chk
%nprocshared=56 
%mem=96gb 
# def2svp wb97xd scrf=(smd,solvent=acetonitrile) g09default scf=(xqc,maxcycle=64) force  guess=read   nosymm

 Title Card 

-1 1
17  -9.70606270  8.28140244  10.53982825
6  -8.39844977  4.29917581  12.19718333
6  -9.21042920  3.97658509  11.09337985
6  -10.11247209  2.90435990  11.22692748
6  -10.20977842  2.19275802  12.41939659
6  -9.39620414  2.52600288  13.50330997
6  -8.48957802  3.58180088  13.38509485
1  -7.68854517  5.12606714  12.12986667
1  -10.75414516  2.63822391  10.38206625
1  -10.92798217  1.37376031  12.50655433
1  -9.45851440  1.95871258  14.43436589
1  -7.85333176  3.85595116  14.23018928
6  -9.16973447  4.73497294  9.84105166
6  -8.44342121  5.85098846  9.62173977
1  -9.81416443  4.35771753  9.03876373
1  -8.46817267  6.35864879  8.65721983
1  -7.74502007  6.24739263  10.35951281
8  -0.97360119  -1.82809310  7.45085153
8  -8.37172096  -1.31926188  7.45914290
8  -7.00493650  1.32813706  10.49320277
8  -2.32427969  -4.39933433  10.55583064
74  -3.37037406  0.71710492  6.51269729
74  -5.99815764  -3.84987909  6.57928303
74  -3.57547579  0.88191419  11.39147381
74  -5.77089799  -3.89938826  11.46254972
74  -2.45102234  -2.58688259  6.36904041
74  -6.89579882  -0.54782913  6.34417592
74  -6.77411925  -0.27137415  11.59741523
74  -2.55845701  -2.74491740  11.62743975
8  -3.12363751  1.91603181  5.35084682
8  -6.14368464  -5.09985951  5.43808216
8  -2.64932783  1.72550793  12.53971263
8  -6.68078572  -4.71670650  12.63982393
8  -2.65784376  -0.90622012  5.58713526
8  -6.68705136  -2.28247153  5.62218753
8  -5.26709372  0.53717773  12.36353748
8  -4.05584032  -3.55095640  12.40788557
8  0.35048874  -0.08830361  9.26619210
8  -9.69854433  -2.99746254  9.31766540
8  -6.38112200  3.40813750  8.68219945
8  -2.97048154  -6.49416540  8.74631759
8  -1.75227954  0.72925934  7.48754069
8  -7.60067083  -3.88024450  7.55266669
8  -4.47754148  2.19263141  10.42294367
8  -4.86191898  -5.24472413  10.51469838
8  -1.62692196  -3.52005504  5.21150104
8  -7.76890551  0.25622200  5.14390369
8  -7.98616542  -0.16861135  12.78200842
8  -1.32920767  -2.87359217  12.79358537
74  -1.21595924  -0.58989336  8.83751277
74  -8.13280387  -2.50638012  8.87498699
74  -5.89136257  1.83864569  9.05256901
74  -3.46086070  -4.91999460  9.15821078
8  -4.22058524  -3.12489825  6.06428582
8  -5.12378467  -0.05270482  6.01771054
8  -6.16131078  -2.02527298  11.92489288
8  -3.15203896  -0.99430002  11.92051040
8  -4.33922971  1.58149062  7.85171748
8  -5.00067176  -4.70520079  7.92032674
8  -2.28583926  0.55030376  10.07357762
8  -7.05395640  -3.62306787  10.13198535
8  -2.56816063  -3.91629463  7.85145178
8  -6.79466695  0.78336494  7.80066262
8  -7.80728560  -1.17877818  10.15952688
8  -1.53755428  -1.89475617  10.14959389
8  -3.34314678  -1.16846304  8.01356112
8  -6.00275688  -1.96889359  8.03614441
8  -5.09460998  -0.22014682  9.94663798
8  -4.23146508  -2.85701583  9.97524166
19  -3.22556944  -6.15111527  5.64841277
19  -0.12373545  -0.03082798  12.32087203
19  -9.29800233  -2.82108444  12.39531388
23  -4.67003923  -1.54943690  8.99018518

-c -h -mn -co -ag -ni -ni 0
def2svp
****
-n -o -f -cl 0
6-31+g(d)
****
-ce 0
sdd
****

-ce 0
sdd



