%chk=b.chk
%nprocshared=56 
%mem=96gb 
# def2svp wb97xd scrf=(smd,solvent=acetonitrile) g09default scf=(xqc,maxcycle=64) force  guess=read   nosymm

 Title Card 

-1 1
17  -9.71114549  8.28256849  10.54062114
6  -8.40095692  4.30149557  12.19692268
6  -9.21461910  3.97984253  11.09404021
6  -10.11532065  2.90646535  11.22771164
6  -10.20979924  2.19309433  12.41934639
6  -9.39500944  2.52592027  13.50252187
6  -8.48934756  3.58250901  13.38400490
1  -7.69167874  5.12884978  12.12904558
1  -10.75781868  2.64012341  10.38349068
1  -10.92632297  1.37260269  12.50647070
1  -9.45549714  1.95759495  14.43302323
1  -7.85129436  3.85555693  14.22810811
6  -9.17467529  4.73914745  9.84215731
6  -8.44389897  5.85185132  9.62076453
1  -9.82292783  4.36531353  9.04140547
1  -8.46745505  6.35822788  8.65553437
1  -7.74240529  6.24601589  10.35684369
8  -0.97327611  -1.82900037  7.45022198
8  -8.37137448  -1.31876029  7.45877949
8  -7.00453695  1.32733690  10.49407469
8  -2.32352617  -4.39984112  10.55598657
74  -3.36935254  0.71751775  6.51388324
74  -5.99873064  -3.85050202  6.58050168
74  -3.57422747  0.88200969  11.39089195
74  -5.77086192  -3.90065020  11.46121974
74  -2.45172943  -2.58701930  6.36781236
74  -6.89450491  -0.54803490  6.34361945
74  -6.77256914  -0.27218546  11.59868491
74  -2.55876740  -2.74516222  11.62819201
8  -3.12194772  1.91680669  5.35247422
8  -6.14488901  -5.10070691  5.43957915
8  -2.64794596  1.72611982  12.53850754
8  -6.68063553  -4.71867065  12.63813653
8  -2.65724351  -0.90583597  5.58716254
8  -6.68653215  -2.28274261  5.62242682
8  -5.26588595  0.53684419  12.36404564
8  -4.05582563  -3.55195876  12.40766005
8  0.35162379  -0.09135736  9.26573700
8  -9.69915000  -2.99496444  9.31799002
8  -6.38252944  3.40728043  8.68338277
8  -2.96825434  -6.49400920  8.74609787
8  -1.75138834  0.72874306  7.48841482
8  -7.60112924  -3.87997921  7.55322051
8  -4.47728313  2.19237273  10.42305341
8  -4.86125931  -5.24537224  10.51376112
8  -1.62825951  -3.52014089  5.20989359
8  -7.76713564  0.25609102  5.14299486
8  -7.98439755  -0.16983524  12.78356744
8  -1.32935994  -2.87425036  12.79419076
74  -1.21500332  -0.59190193  8.83726186
74  -8.13299126  -2.50483935  8.87510613
74  -5.89185789  1.83800982  9.05322961
74  -3.45907748  -4.91998339  9.15803805
8  -4.22083148  -3.12492771  6.06414328
8  -5.12275301  -0.05267681  6.01784497
8  -6.16047011  -2.02615698  11.92464157
8  -3.15137159  -0.99457355  11.92127817
8  -4.33894777  1.58138195  7.85232982
8  -5.00004856  -4.70520002  7.92044528
8  -2.28515173  0.54928000  10.07351395
8  -7.05410675  -3.62314274  10.13155491
8  -2.56745786  -3.91633560  7.85096599
8  -6.79420602  0.78282905  7.80087150
8  -7.80669163  -1.17846543  10.15989131
8  -1.53772433  -1.89588885  10.14961257
8  -3.34283887  -1.16891713  8.01337641
8  -6.00248399  -1.96890695  8.03643634
8  -5.09389767  -0.22063444  9.94707400
8  -4.23083877  -2.85737905  9.97520908
19  -3.22604130  -6.15199215  5.64836799
19  -0.12227015  -0.03404586  12.32224139
19  -9.29906650  -2.82149684  12.39398046
23  -4.66959223  -1.54976704  8.99028613

-c -h -mn -co -ag -ni -ni 0
def2svp
****
-n -o -f -cl 0
6-31+g(d)
****
-ce 0
sdd
****

-ce 0
sdd



