%chk=b.chk
%nprocshared=56 
%mem=96gb 
# def2svp wb97xd scrf=(smd,solvent=acetonitrile) g09default scf=(xqc,maxcycle=64) force  guess=read   nosymm

 Title Card 

-1 1
17  -9.71525407  8.28345343  10.54133179
6  -8.40291352  4.30339491  12.19680584
6  -9.21801723  3.98264619  11.09474667
6  -10.11758226  2.90826433  11.22833192
6  -10.20975962  2.19335475  12.41925981
6  -9.39417878  2.52591665  13.50188182
6  -8.48914026  3.58301627  13.38321937
1  -7.69392822  5.13093250  12.12846974
1  -10.76053984  2.64170565  10.38453344
1  -10.92471334  1.37144662  12.50612776
1  -9.45342329  1.95686849  14.43201166
1  -7.84948110  3.85491606  14.22645746
6  -9.17868709  4.74262510  9.84318061
6  -8.44430703  5.85247648  9.61979104
1  -9.83016997  4.37157675  9.04380351
1  -8.46687380  6.35741960  8.65375997
1  -7.74042400  6.24517762  10.35440213
8  -0.97296949  -1.82962826  7.44975432
8  -8.37116959  -1.31840178  7.45848804
8  -7.00423215  1.32675092  10.49472096
8  -2.32292806  -4.40038356  10.55612191
74  -3.36863330  0.71765814  6.51470594
74  -5.99915856  -3.85087479  6.58138987
74  -3.57335183  0.88189357  11.39054510
74  -5.77073673  -3.90159631  11.46017341
74  -2.45218621  -2.58715013  6.36699615
74  -6.89365120  -0.54804292  6.34328408
74  -6.77144498  -0.27279441  11.59957406
74  -2.55887703  -2.74540477  11.62868948
8  -3.12075926  1.91711848  5.35350740
8  -6.14577577  -5.10117825  5.44081914
8  -2.64683762  1.72649246  12.53767368
8  -6.68048356  -4.72004592  12.63672532
8  -2.65671289  -0.90561929  5.58719469
8  -6.68617295  -2.28285532  5.62266403
8  -5.26505817  0.53662782  12.36447534
8  -4.05572784  -3.55280884  12.40743507
8  0.35253648  -0.09358574  9.26549521
8  -9.69950848  -2.99301349  9.31836116
8  -6.38350154  3.40674685  8.68433711
8  -2.96655625  -6.49386247  8.74578532
8  -1.75074803  0.72832755  7.48908134
8  -7.60153068  -3.87974632  7.55362144
8  -4.47706530  2.19209239  10.42319756
8  -4.86074130  -5.24593635  10.51301623
8  -1.62923828  -3.52034115  5.20871038
8  -7.76579325  0.25615697  5.14247471
8  -7.98312922  -0.17098779  12.78467120
8  -1.32933608  -2.87480935  12.79452252
74  -1.21450274  -0.59339342  8.83701347
74  -8.13324890  -2.50374103  8.87524185
74  -5.89204916  1.83748664  9.05381865
74  -3.45769580  -4.92004365  9.15788568
8  -4.22098497  -3.12487396  6.06410288
8  -5.12198691  -0.05278020  6.01801191
8  -6.15964726  -2.02677060  11.92425316
8  -3.15090599  -0.99487190  11.92195168
8  -4.33873598  1.58124090  7.85277173
8  -4.99957807  -4.70497593  7.92063789
8  -2.28472684  0.54838975  10.07349906
8  -7.05408504  -3.62312796  10.13110116
8  -2.56682931  -3.91634439  7.85066445
8  -6.79382275  0.78240853  7.80111061
8  -7.80622133  -1.17817801  10.16008298
8  -1.53798437  -1.89682515  10.14954966
8  -3.34265628  -1.16931899  8.01323861
8  -6.00233384  -1.96889269  8.03669062
8  -5.09334381  -0.22106375  9.94742896
8  -4.23028831  -2.85770801  9.97519459
19  -3.22639937  -6.15264837  5.64832888
19  -0.12076071  -0.03647239  12.32363275
19  -9.29992612  -2.82188471  12.39294311
23  -4.66919188  -1.55000911  8.99039695

-c -h -mn -co -ag -ni -ni 0
def2svp
****
-n -o -f -cl 0
6-31+g(d)
****
-ce 0
sdd
****

-ce 0
sdd



