%chk=a.chk
%nprocshared=56 
%mem=96gb 
# def2svp wb97xd scrf=(smd,solvent=acetonitrile) g09default scf=(xqc,maxcycle=64) force  guess=read   nosymm

 Title Card 

-1 1
17  -9.72021895  8.28450025  10.54219017
6  -8.40529424  4.30571984  12.19666301
6  -9.22213188  3.98608691  11.09564243
6  -10.12033914  2.91049925  11.22904459
6  -10.20971142  2.19365801  12.41917041
6  -9.39316338  2.52592016  13.50108080
6  -8.48888723  3.58362248  13.38227672
1  -7.69663642  5.13348004  12.12781345
1  -10.76383305  2.64368699  10.38579402
1  -10.92272807  1.37004275  12.50566123
1  -9.45091461  1.95597559  14.43078423
1  -7.84726184  3.85411865  14.22445389
6  -9.18360339  4.74684864  9.84442405
6  -8.44483072  5.85325346  9.61858796
1  -9.83904254  4.37918594  9.04676149
1  -8.46626358  6.35642691  8.65155694
1  -7.73801343  6.24417425  10.35137989
8  -0.97260556  -1.83039067  7.44919213
8  -8.37093614  -1.31796011  7.45815079
8  -7.00384622  1.32604248  10.49549852
8  -2.32220640  -4.40106679  10.55627623
74  -3.36776656  0.71790340  6.51558432
74  -5.99966593  -3.85118854  6.58256870
74  -3.57224556  0.88176346  11.39020910
74  -5.77056131  -3.90273467  11.45888417
74  -2.45274474  -2.58732734  6.36602465
74  -6.89257230  -0.54813099  6.34299360
74  -6.77010585  -0.27355783  11.60064781
74  -2.55901073  -2.74573300  11.62927372
8  -3.11936990  1.91738146  5.35479579
8  -6.14683213  -5.10182300  5.44221903
8  -2.64552179  1.72687784  12.53666224
8  -6.68031252  -4.72168984  12.63503138
8  -2.65607188  -0.90537917  5.58723062
8  -6.68575187  -2.28297156  5.62295502
8  -5.26405897  0.53635903  12.36499157
8  -4.05559092  -3.55384313  12.40715667
8  0.35347587  -0.09629784  9.26519973
8  -9.70002007  -2.99071189  9.31885908
8  -6.38459332  3.40597940  8.68553242
8  -2.96449922  -6.49378821  8.74533722
8  -1.74998571  0.72781408  7.48987897
8  -7.60201601  -3.87946167  7.55409404
8  -4.47677288  2.19172607  10.42338189
8  -4.86011271  -5.24663262  10.51211262
8  -1.63039464  -3.52060660  5.20728656
8  -7.76423900  0.25632822  5.14179483
8  -7.98160790  -0.17240898  12.78598719
8  -1.32926961  -2.87549316  12.79491817
74  -1.21370875  -0.59513457  8.83678748
74  -8.13344032  -2.50239725  8.87535897
74  -5.89232271  1.83702038  9.05449501
74  -3.45607687  -4.92001599  9.15772409
8  -4.22114880  -3.12480492  6.06405738
8  -5.12106129  -0.05291236  6.01822299
8  -6.15862807  -2.02749636  11.92377034
8  -3.15034410  -0.99525492  11.92276413
8  -4.33846521  1.58105818  7.85330655
8  -4.99901317  -4.70469571  7.92087519
8  -2.28421929  0.54730278  10.07349661
8  -7.05403934  -3.62310152  10.13054701
8  -2.56606604  -3.91636528  7.85029671
8  -6.79334505  0.78191003  7.80141391
8  -7.80565085  -1.17782973  10.16032223
8  -1.53829620  -1.89796446  10.14946813
8  -3.34240129  -1.16979536  8.01305946
8  -6.00211384  -1.96885839  8.03703302
8  -5.09266992  -0.22156397  9.94787361
8  -4.22961505  -2.85809659  9.97516387
19  -3.22683433  -6.15343664  5.64827997
19  -0.11889087  -0.03940937  12.32534442
19  -9.30096752  -2.82236114  12.39168341
23  -4.66877302  -1.55038382  8.99051946

-c -h -mn -co -ag -ni -ni 0
def2svp
****
-n -o -f -cl 0
6-31+g(d)
****
-ce 0
sdd
****

-ce 0
sdd



