%chk=a.chk
%nprocshared=56 
%mem=96gb 
# def2svp wb97xd scrf=(smd,solvent=acetonitrile) g09default scf=(xqc,maxcycle=64) force  guess=read   nosymm

 Title Card 

-1 1
17  -9.91492733  7.68266676  10.40883800
6  -8.31409958  4.25121586  12.23938657
6  -9.06587085  3.92848610  11.09614382
6  -10.00773521  2.89151177  11.19940578
6  -10.18585271  2.19351327  12.38941467
6  -9.42749569  2.52046462  13.51389953
6  -8.48943905  3.55108135  13.43008574
1  -7.57692161  5.05683128  12.19907831
1  -10.59706467  2.62802689  10.31692652
1  -10.91236766  1.37930270  12.43441138
1  -9.55862984  1.96792682  14.44724246
1  -7.88403511  3.80899556  14.30307807
6  -8.91143560  4.61749728  9.81469252
6  -8.08160884  5.64184616  9.56975055
1  -9.60897855  4.31323451  9.02861758
1  -8.05790219  6.12462727  8.59334973
1  -7.38564792  6.03684693  10.31154924
8  -1.01539435  -1.76029400  7.45828456
8  -8.40484146  -1.32779357  7.46286073
8  -7.05838858  1.33539676  10.49529721
8  -2.34027180  -4.34512259  10.56461246
74  -3.43350301  0.75191272  6.50938256
74  -6.01166630  -3.82748876  6.59064452
74  -3.63528192  0.92082158  11.39809491
74  -5.77780388  -3.86701345  11.46669622
74  -2.46966873  -2.54683137  6.37577915
74  -6.95119328  -0.52849581  6.34846240
74  -6.83304073  -0.25370355  11.60047001
74  -2.57033181  -2.69051173  11.63035467
8  -3.20788189  1.95578412  5.34751256
8  -6.13619061  -5.09114423  5.46043294
8  -2.70148873  1.76955059  12.53759142
8  -6.70338270  -4.67913368  12.63913101
8  -2.69520268  -0.86375315  5.60517762
8  -6.71832406  -2.26974999  5.64656088
8  -5.32343072  0.56868313  12.35350007
8  -4.06840199  -3.51225137  12.39890548
8  0.30078355  -0.00560041  9.28705696
8  -9.72340642  -3.01360395  9.34874109
8  -6.43183198  3.41853157  8.64348064
8  -2.96216304  -6.45086522  8.73542336
8  -1.81627001  0.77145691  7.49147441
8  -7.61226893  -3.86227670  7.56604509
8  -4.55347105  2.21451598  10.42179373
8  -4.85629536  -5.20174497  10.51978606
8  -1.65036542  -3.48234969  5.21647156
8  -7.81842711  0.27250662  5.14201174
8  -8.03974854  -0.18652613  12.79223659
8  -1.33920579  -2.78921231  12.79862790
74  -1.25749916  -0.52098506  8.84433366
74  -8.16797765  -2.50590463  8.88667574
74  -5.95291394  1.85872232  9.04903544
74  -3.46153689  -4.88308782  9.16362049
8  -4.24286820  -3.08002433  6.08676713
8  -5.17179675  -0.04566261  6.03418464
8  -6.17408305  -1.99480079  11.90743520
8  -3.20626877  -0.95400421  11.91367686
8  -4.40233251  1.59312058  7.86202283
8  -5.00558172  -4.65285702  7.94514741
8  -2.35721186  0.58846062  10.06514373
8  -7.05461896  -3.59564988  10.12474680
8  -2.57487220  -3.86104157  7.86576433
8  -6.85619667  0.78334306  7.80786204
8  -7.84370001  -1.16439277  10.15684621
8  -1.57775433  -1.84269597  10.14717298
8  -3.39996171  -1.12508881  8.02164042
8  -6.01999563  -1.95171638  8.04978954
8  -5.12827418  -0.20494816  9.94568630
8  -4.26177080  -2.81139535  9.97641587
19  -3.24168311  -6.08712232  5.68930363
19  -0.18072165  0.02491153  12.32624989
19  -9.23560712  -2.92360534  12.38147492
23  -4.70517938  -1.51975255  8.99611099

-c -h -mn -co -ag -ni -ni 0
def2svp
****
-n -o -f -cl 0
6-31+g(d)
****
-ce 0
sdd
****

-ce 0
sdd



