%mem=48GB
%nprocshared=28
# opt td 6-31g(d) geom=connectivity g09default m062x

Title Card Required

0 1
 C                  0.81864796   -0.76642588    0.32403519
 C                  2.10914300   -0.59405704   -0.12554865
 C                  2.58853199    0.61372654   -0.53053225
 C                  1.86425850    1.75516154   -0.29082380
 C                  0.52887972    1.64982296    0.09256603
 C                 -0.01814106    0.37479715    0.42092281
 H                  3.56221904    0.67017709   -0.97298836
 H                 -1.02697243    0.28655544    0.72695207
 C                 -0.30612633    2.94123933    0.14065931
 N                 -0.92296037    3.89521083    0.17618963
 C                  2.56544861    3.12695997   -0.41031375
 N                  3.09036873    4.13187721   -0.50088223
 C                 -0.21424639   -2.50041946    1.75878024
 C                  1.05115387   -3.14357092   -0.13824460
 C                 -0.99883135   -1.83843834    2.62504792
 C                  0.04006125   -3.85591254    1.84691923
 C                  1.62829793   -3.15535853   -1.36323322
 C                  0.83534658   -4.27684148    0.59385601
 C                 -1.47959429   -2.56616695    3.73122083
 H                 -1.24126229   -0.80691909    2.48800255
 C                 -0.36149574   -4.58615135    2.89438563
 C                  2.05449584   -4.39940300   -1.86822258
 H                  1.75157626   -2.25719306   -1.93276776
 C                  1.28576845   -5.48262803    0.19413793
 C                 -1.13408089   -3.93582382    3.88102512
 H                 -2.09689289   -2.08422921    4.45977358
 H                 -0.10096382   -5.61798645    2.97956199
 C                  1.90382296   -5.56406046   -1.07682204
 H                  2.49335460   -4.46391165   -2.84358016
 H                  1.17822319   -6.34593978    0.81051212
 H                 -1.46369842   -4.47454699    4.73897341
 H                  2.25222036   -6.50313674   -1.44556462
 C                  3.70868060   -1.97936416    1.07429782
 C                  3.84388490   -1.89310008   -1.29458482
 C                  3.25256886   -2.19933680    2.33597296
 C                  5.01469652   -2.19232035    0.70471793
 C                  3.47262682   -2.06606477   -2.58671333
 C                  5.09273189   -2.15888562   -0.83941482
 C                  4.24592836   -2.39954538    3.32575844
 H                  2.21076335   -2.22354730    2.57355513
 C                  5.98951336   -2.34806132    1.60079928
 C                  4.49922027   -2.31343702   -3.51235585
 H                  2.43844328   -2.04312614   -2.88652134
 C                  6.12155609   -2.31878047   -1.67397666
 C                  5.61748689   -2.40707131    2.95655807
 H                  3.96293108   -2.53170271    4.35386966
 H                  7.01184363   -2.41207181    1.29142868
 C                  5.83263619   -2.36591709   -3.05893944
 H                  4.26799298   -2.45332941   -4.55580121
 H                  7.11942475   -2.39929281   -1.30561451
 H                  6.37480046   -2.45483345    3.70920758
 H                  6.63845583   -2.44129843   -3.76532469
 N                  0.54548636   -1.99527102    0.63353865
 N                  3.07953168   -1.43871559   -0.13269193

 1 2 1.5 6 1.5 53 1.5
 2 3 1.5 54 1.5
 3 4 1.5 7 1.0
 4 5 1.5 11 1.0
 5 6 1.5 9 1.0
 6 8 1.0
 7
 8
 9 10 3.0
 10
 11 12 3.0
 12
 13 15 2.0 16 1.5 53 1.0
 14 17 2.0 18 1.5 53 1.0
 15 19 1.5 20 1.0
 16 21 2.0 18 1.0
 17 22 1.5 23 1.0
 18 24 2.0
 19 25 1.5 26 1.0
 20
 21 25 1.5 27 1.0
 22 28 1.5 29 1.0
 23
 24 28 1.5 30 1.0
 25 31 1.0
 26
 27
 28 32 1.0
 29
 30
 31
 32
 33 35 2.0 36 1.5 54 1.0
 34 37 2.0 38 1.5 54 1.0
 35 39 1.5 40 1.0
 36 41 2.0 38 1.0
 37 42 1.5 43 1.0
 38 44 2.0
 39 45 1.5 46 1.0
 40
 41 45 1.5 47 1.0
 42 48 1.5 49 1.0
 43
 44 48 1.5 50 1.0
 45 51 1.0
 46
 47
 48 52 1.0
 49
 50
 51
 52
 53
 54

