%chk=b.chk
%nprocshared=56 
%mem=96gb 
# pbe1pbe em=gd3bj genecp g09default scf=(xqc,maxcycle=64) force  guess=read   nosymm

 Title Card 

0 3
6  0.00000019  0.70835276  0.00007496
6  -1.25817941  1.35137474  0.00005027
6  -1.24322292  2.74609677  -0.00000378
6  0.00000290  3.39405815  0.00001297
6  1.24322181  2.74609791  0.00004773
6  1.25818633  1.35137291  0.00009164
1  -2.15921502  3.32699537  -0.00004631
1  0.00000072  4.48774446  -0.00001054
1  2.15921781  3.32699686  0.00004863
6  3.66463426  0.58247425  -0.00001763
6  1.88989669  -0.89843361  0.00010948
6  4.16075961  -0.74269123  -0.00009506
6  4.52552565  1.66477177  -0.00005253
6  5.52841655  -1.00146497  -0.00020144
6  5.90723094  1.40075878  -0.00017002
1  4.16099841  2.68365336  0.00001288
6  6.39269221  0.10025603  -0.00024129
1  5.90713230  -2.01944045  -0.00024880
1  6.59557255  2.23682660  -0.00019564
1  7.46504445  -0.07073709  -0.00032417
6  -3.66463522  0.58247597  -0.00002962
6  -1.88988575  -0.89843314  0.00006773
6  -4.16074863  -0.74269320  -0.00006450
6  -4.52551926  1.66475824  -0.00005109
6  -5.52841676  -1.00147354  -0.00010249
6  -5.90723295  1.40075258  -0.00009799
1  -4.16099783  2.68365020  -0.00002157
6  -6.39268179  0.10024586  -0.00012116
1  -5.90712437  -2.01944750  -0.00010898
1  -6.59557067  2.23681582  -0.00010833
1  -7.46504240  -0.07074818  -0.00015114
7  -2.28286886  0.46847703  0.00000804
7  -3.08812330  -1.59741856  -0.00004719
7  2.28286849  0.46848069  0.00008315
7  3.08812682  -1.59740615  -0.00005424
6  3.17927015  -3.01991023  0.00000562
1  3.70462417  -3.38270114  -0.89331149
1  3.70420108  -3.38270717  0.89357507
1  2.17120934  -3.44487036  -0.00024722
6  -3.17925849  -3.01990917  0.00004326
1  -3.70413036  -3.38269802  0.89365548
1  -3.70467464  -3.38272017  -0.89323230
1  -2.17119947  -3.44487224  -0.00027437
27  0.00000060  -1.17863391  0.00008401

-c -h -o -n 0
6-31g(d)
****
-co 0
sdd
****

-co 0
sdd




