%chk=a.chk
%nprocshared=56 
%mem=96gb 
# pbe1pbe em=gd3bj genecp g09default scf=(xqc,maxcycle=64) force  guess=read   nosymm

 Title Card 

0 1
6  0.00000135  0.68760288  0.00011159
6  -1.23711225  1.35295795  0.00004185
6  -1.23767341  2.74841587  -0.00000406
6  0.00000280  3.40558960  0.00001385
6  1.23767385  2.74841593  0.00004715
6  1.23711871  1.35295643  0.00008445
1  -2.15496036  3.32532630  -0.00004647
1  0.00000079  4.49614652  -0.00001091
1  2.15496298  3.32532754  0.00004889
6  3.65872502  0.57893158  -0.00001958
6  1.88842060  -0.89666121  0.00010659
6  4.16158600  -0.74187165  -0.00009981
6  4.52436919  1.66497447  -0.00005175
6  5.52889192  -1.00174772  -0.00020357
6  5.90199320  1.40068952  -0.00016899
1  4.16079854  2.68376963  0.00001320
6  6.39181733  0.09840070  -0.00024093
1  5.90772475  -2.01909105  -0.00024956
1  6.59356124  2.23590110  -0.00019597
1  7.46484645  -0.07104587  -0.00032333
6  -3.65872486  0.57893112  -0.00003122
6  -1.88840949  -0.89666268  0.00005662
6  -4.16157832  -0.74187578  -0.00006515
6  -4.52436570  1.66496377  -0.00005007
6  -5.52888897  -1.00175590  -0.00010358
6  -5.90199301  1.40068257  -0.00009700
1  -4.16079798  2.68376577  -0.00002139
6  -6.39180961  0.09839126  -0.00012102
1  -5.90771738  -2.01909867  -0.00010974
1  -6.59356000  2.23589086  -0.00010878
1  -7.46484327  -0.07105689  -0.00015059
7  -2.27880390  0.45724819  0.00001291
7  -3.08178780  -1.59325844  -0.00004133
7  2.27880445  0.45725151  0.00009078
7  3.08179178  -1.59324850  -0.00005054
6  3.17675188  -3.02112068  0.00000453
1  3.70459469  -3.37982602  -0.89256668
1  3.70417270  -3.37982758  0.89282797
1  2.16888985  -3.44333380  -0.00024552
6  -3.17674156  -3.02112055  0.00004257
1  -3.70410182  -3.37981982  0.89290772
1  -3.70464502  -3.37984438  -0.89248757
1  -2.16888004  -3.44333550  -0.00027268
27  0.00000066  -1.17285134  0.00006711

-c -h -o -n 0
6-31g(d)
****
-co 0
sdd
****

-co 0
sdd



