%chk=a.chk
%nprocshared=56 
%mem=96gb 
# pbe1pbe em=gd3bj genecp g09default scf=(xqc,maxcycle=64) force  guess=read   nosymm

 Title Card 

0 1
6  0.00000328  0.64009167  0.00012624
6  -1.19745024  1.35941639  0.00004881
6  -1.22554372  2.75011219  -0.00000387
6  0.00000210  3.42935266  0.00001458
6  1.22554827  2.75011184  0.00004692
6  1.19745520  1.35941533  0.00009470
1  -2.14710929  3.32240057  -0.00004838
1  0.00000120  4.51688404  -0.00001063
1  2.14711143  3.32240095  0.00004788
6  3.64892865  0.57356365  -0.00002058
6  1.88364095  -0.89726606  0.00011634
6  4.16278652  -0.73660908  -0.00011153
6  4.51922649  1.66223030  -0.00005042
6  5.52843187  -1.00174084  -0.00020890
6  5.88965780  1.40022999  -0.00016709
1  4.16009028  2.68503093  0.00001435
6  6.39080424  0.09417974  -0.00023938
1  5.90955025  -2.01907356  -0.00025147
1  6.58878050  2.23367538  -0.00019692
1  7.46390003  -0.07149113  -0.00032121
6  -3.64892480  0.57355636  -0.00003227
6  -1.88363462  -0.89726942  0.00005126
6  -4.16278341  -0.73661414  -0.00006910
6  -4.51922635  1.66222565  -0.00004799
6  -5.52842554  -1.00174967  -0.00010631
6  -5.88965629  1.40022206  -0.00009528
1  -4.16009013  2.68502520  -0.00002066
6  -6.39080011  0.09417191  -0.00011982
1  -5.90954380  -2.01908175  -0.00011173
1  -6.58878008  2.23366570  -0.00010994
1  -7.46389546  -0.07150212  -0.00014915
7  -2.26717583  0.43553154  0.00001888
7  -3.06331083  -1.58612931  -0.00003933
7  2.26717948  0.43553582  0.00010103
7  3.06331914  -1.58612480  -0.00005241
6  3.17116563  -3.02155024  -0.00000056
1  3.70449292  -3.37316043  -0.89104184
1  3.70407584  -3.37315296  0.89129985
1  2.16312164  -3.43992102  -0.00023889
6  -3.17115695  -3.02155356  0.00003759
1  -3.70400509  -3.37314831  0.89137868
1  -3.70454304  -3.37317723  -0.89096282
1  -2.16311295  -3.43992169  -0.00026585
27  0.00000081  -1.16471564  0.00003713

-c -h -o -n 0
6-31g(d)
****
-co 0
sdd
****

-co 0
sdd



