%chk=b.chk
%nprocshared=56 
%mem=96gb 
# pbe1pbe em=gd3bj genecp g09default scf=(xqc,maxcycle=64) force  guess=read   nosymm

 Title Card 

0 3
6  0.00000319  0.79287757  0.00010642
6  -1.30659392  1.35112859  0.00003700
6  -1.26444847  2.74061812  -0.00000924
6  -0.00000112  3.36472382  0.00001321
6  1.26445122  2.74061990  0.00003989
6  1.30659573  1.35112879  0.00007249
1  -2.16953903  3.33745729  -0.00004554
1  0.00000029  4.45305587  -0.00001050
1  2.16953913  3.33745809  0.00004648
6  3.68532176  0.59025153  -0.00002287
6  1.89944542  -0.90176375  0.00011930
6  4.16975799  -0.74191257  -0.00008673
6  4.53983830  1.66692795  -0.00005603
6  5.53283039  -1.00100609  -0.00019145
6  5.92677892  1.40316435  -0.00017143
1  4.16758090  2.68454583  0.00000943
6  6.40404738  0.10751606  -0.00024219
1  5.90807330  -2.01958403  -0.00024253
1  6.61315742  2.24219071  -0.00019524
1  7.47282655  -0.07065988  -0.00032939
6  -3.68531206  0.59024235  -0.00003919
6  -1.89943906  -0.90176332  0.00010272
6  -4.16976028  -0.74191640  -0.00006752
6  -4.53984321  1.66692828  -0.00005510
6  -5.53281577  -1.00101493  -0.00009931
6  -5.92677246  1.40315420  -0.00010008
1  -4.16758092  2.68454003  -0.00002380
6  -6.40404694  0.10750982  -0.00012300
1  -5.90806571  -2.01959266  -0.00010406
1  -6.61315792  2.24218269  -0.00010690
1  -7.47282040  -0.07067078  -0.00015345
7  -2.30158209  0.48868819  0.00001128
7  -3.10869207  -1.60456937  -0.00005023
7  2.30158215  0.48868966  0.00007353
7  3.10869814  -1.60456508  -0.00005080
6  3.19162820  -3.02131383  0.00000996
1  3.70847803  -3.39593660  -0.89475097
1  3.70803693  -3.39595532  0.89502708
1  2.18319588  -3.44948725  -0.00026617
6  -3.19161800  -3.02131692  0.00004871
1  -3.70796521  -3.39594133  0.89510872
1  -3.70852797  -3.39595791  -0.89466938
1  -2.18318475  -3.44948939  -0.00029349
27  0.00000603  -1.21710496  0.00007042

-c -h -o -n 0
6-31g(d)
****
-co 0
sdd
****

-co 0
sdd




