%chk=b.chk
%nprocshared=56 
%mem=96gb 
# pbe1pbe em=gd3bj genecp g09default scf=(xqc,maxcycle=64) force  guess=read   nosymm

 Title Card 

0 3
6  0.00000459  0.78589613  0.00011830
6  -1.30656302  1.35119753  0.00003740
6  -1.26692959  2.73813765  -0.00001053
6  -0.00000232  3.36530130  0.00001341
6  1.26693388  2.73814036  0.00003875
6  1.30656402  1.35119589  0.00007254
1  -2.17007686  3.33843159  -0.00004587
1  0.00000041  4.45256904  -0.00001054
1  2.17007647  3.33843215  0.00004615
6  3.68528017  0.59108142  -0.00002357
6  1.89697972  -0.90252620  0.00011372
6  4.16987743  -0.73993484  -0.00008626
6  4.53885781  1.66568614  -0.00005620
6  5.53061776  -1.00173871  -0.00019145
6  5.92569515  1.40219127  -0.00017122
1  4.16740344  2.68518822  0.00000952
6  6.40465748  0.10864071  -0.00024230
1  5.90800961  -2.01950268  -0.00024246
1  6.61303497  2.24214738  -0.00019523
1  7.47266925  -0.07060889  -0.00032940
6  -3.68526572  0.59106658  -0.00004033
6  -1.89697925  -0.90252414  0.00009774
6  -4.16988749  -0.73993933  -0.00006763
6  -4.53886850  1.66569228  -0.00005535
6  -5.53059523  -1.00174809  -0.00009957
6  -5.92568326  1.40217971  -0.00009986
1  -4.16740378  2.68518049  -0.00002383
6  -6.40466235  0.10863694  -0.00012300
1  -5.90800266  -2.01951203  -0.00010415
1  -6.61303617  2.24214008  -0.00010682
1  -7.47266158  -0.07061969  -0.00015338
7  -2.29762156  0.48997222  0.00001374
7  -3.10496819  -1.60458526  -0.00004669
7  2.29762217  0.48997557  0.00007575
7  3.10497810  -1.60458526  -0.00004835
6  3.19137603  -3.02068405  0.00000977
1  3.70827257  -3.39530141  -0.89459951
1  3.70783199  -3.39532029  0.89487547
1  2.18283457  -3.44963020  -0.00026630
6  -3.19136727  -3.02068946  0.00004873
1  -3.70776012  -3.39530634  0.89495668
1  -3.70832217  -3.39532253  -0.89451768
1  -2.18282310  -3.44963229  -0.00029350
27  0.00000851  -1.21529159  0.00006336

-c -h -o -n 0
6-31g(d)
****
-co 0
sdd
****

-co 0
sdd




