%chk=a.chk
%nprocshared=56 
%mem=96gb 
# pbe1pbe em=gd3bj genecp g09default scf=(xqc,maxcycle=64) force  guess=read   nosymm

 Title Card 

0 1
6  0.00000631  0.77642087  0.00006057
6  -1.28548125  1.35323371  0.00003992
6  -1.25248380  2.74492383  -0.00000327
6  -0.00000492  3.38207089  0.00001202
6  1.25249479  2.74492224  0.00004597
6  1.28547398  1.35323726  0.00007867
1  -2.16331040  3.33224264  -0.00004520
1  0.00000059  4.46579088  -0.00001017
1  2.16330980  3.33224255  0.00004758
6  3.68285722  0.58513303  -0.00002127
6  1.90518284  -0.90098180  0.00012598
6  4.17167380  -0.74194856  -0.00009310
6  4.53802620  1.66557370  -0.00005470
6  5.53294878  -1.00200178  -0.00019487
6  5.91915541  1.40299512  -0.00017076
1  4.16603087  2.68444165  0.00001036
6  6.40254794  0.10529877  -0.00024161
1  5.90894009  -2.01932918  -0.00024457
1  6.60932209  2.24138346  -0.00019568
1  7.47078232  -0.07097275  -0.00032756
6  -3.68283544  0.58511252  -0.00003576
6  -1.90517717  -0.90098623  0.00009866
6  -4.17168993  -0.74195840  -0.00006784
6  -4.53804397  1.66558608  -0.00005302
6  -5.53291783  -1.00201052  -0.00009990
6  -5.91914215  1.40298191  -0.00009948
1  -4.16603076  2.68443359  -0.00002306
6  -6.40255676  0.10529605  -0.00012254
1  -5.90893430  -2.01933940  -0.00010547
1  -6.60932532  2.24137811  -0.00010773
1  -7.47077266  -0.07098323  -0.00015270
7  -2.29822834  0.47866650  0.00000768
7  -3.10407504  -1.60404466  -0.00005533
7  2.29823136  0.47865882  0.00007413
7  3.10408366  -1.60404412  -0.00005516
6  3.18917879  -3.02223402  0.00000840
1  3.70797125  -3.39269704  -0.89411579
1  3.70753381  -3.39270937  0.89438814
1  2.17950388  -3.44715645  -0.00026018
6  -3.18917152  -3.02223927  0.00004671
1  -3.70746172  -3.39269709  0.89446888
1  -3.70802120  -3.39271785  -0.89403409
1  -2.17949294  -3.44715815  -0.00028774
27  0.00000748  -1.20973700  0.00010489

-c -h -o -n 0
6-31g(d)
****
-co 0
sdd
****

-co 0
sdd



