%chk=b.chk
%nprocshared=56 
%mem=96gb 
# pbe1pbe em=gd3bj genecp g09default scf=(xqc,maxcycle=64) force  guess=read   nosymm

 Title Card 

0 3
6  -0.00000075  0.72256914  0.00005726
6  -1.25367026  1.33877966  0.00003482
6  -1.23236107  2.74538162  0.00000262
6  -0.00000034  3.41309562  0.00001296
6  1.23236553  2.74538084  0.00005344
6  1.25367264  1.33877893  0.00008623
1  -2.15114422  3.32006271  -0.00004448
1  0.00000064  4.50241506  -0.00001192
1  2.15114589  3.32006415  0.00005093
6  3.66413565  0.58076352  -0.00002022
6  1.88781867  -0.90229601  0.00009583
6  4.15599453  -0.74281695  -0.00009530
6  4.51600030  1.66134321  -0.00005459
6  5.52559836  -1.00497708  -0.00020379
6  5.90223089  1.39636057  -0.00016691
1  4.15914172  2.68420214  0.00001405
6  6.38962911  0.10273589  -0.00024252
1  5.90700472  -2.01855833  -0.00025102
1  6.58961122  2.23506414  -0.00019563
1  7.46249729  -0.07111339  -0.00032248
6  -3.66412930  0.58075741  -0.00004010
6  -1.88781723  -0.90229688  0.00005923
6  -4.15599264  -0.74282672  -0.00005930
6  -4.51600357  1.66134179  -0.00004950
6  -5.52558809  -1.00498210  -0.00010101
6  -5.90222365  1.39634960  -0.00009544
1  -4.15914162  2.68419583  -0.00002152
6  -6.38963299  0.10272667  -0.00012280
1  -5.90699768  -2.01856796  -0.00011125
1  -6.58961274  2.23505709  -0.00010851
1  -7.46248769  -0.07112352  -0.00015036
7  -2.26921364  0.47884227  0.00001785
7  -3.08709042  -1.60217328  -0.00004092
7  2.26922191  0.47884864  0.00008478
7  3.08709977  -1.60217864  -0.00003795
6  3.17364706  -3.01712818  -0.00000161
1  3.70349217  -3.37722869  -0.89264910
1  3.70307534  -3.37722624  0.89290838
1  2.16571303  -3.44377391  -0.00024151
6  -3.17364124  -3.01713694  0.00003881
1  -3.70300336  -3.37721802  0.89298586
1  -3.70354192  -3.37724517  -0.89256953
1  -2.16570103  -3.44377598  -0.00026802
27  0.00000496  -1.19639553  0.00011419

-c -h -o -n 0
6-31g(d)
****
-co 0
sdd
****

-co 0
sdd




