%chk=b.chk
%nprocshared=56 
%mem=96gb 
# pbe1pbe em=gd3bj genecp g09default scf=(xqc,maxcycle=64) force  guess=read   nosymm

 Title Card 

0 3
6  0.00000072  0.72291793  0.00009935
6  -1.25098800  1.35436368  0.00003071
6  -1.24086881  2.74751853  -0.00000302
6  0.00000151  3.40362196  0.00001325
6  1.24087182  2.74751919  0.00004721
6  1.25099152  1.35436226  0.00007325
1  -2.15508105  3.32639941  -0.00004481
1  0.00000071  4.49018815  -0.00001099
1  2.15508381  3.32640008  0.00004941
6  3.66966994  0.58040682  -0.00002309
6  1.89725516  -0.90017115  0.00010159
6  4.16772826  -0.74133785  -0.00009838
6  4.52906308  1.66420867  -0.00005297
6  5.53206445  -1.00205928  -0.00020084
6  5.90855749  1.40117980  -0.00016902
1  4.16328385  2.68388242  0.00001194
6  6.39646859  0.10130337  -0.00024166
1  5.90967600  -2.01937926  -0.00024773
1  6.59993026  2.23804158  -0.00019591
1  7.46804417  -0.07118909  -0.00032476
6  -3.66967022  0.58040628  -0.00003584
6  -1.89724807  -0.90017380  0.00005841
6  -4.16771810  -0.74134453  -0.00006543
6  -4.52906020  1.66419986  -0.00005068
6  -5.53205958  -1.00206789  -0.00010169
6  -5.90855749  1.40117219  -0.00009745
1  -4.16328353  2.68387842  -0.00002213
6  -6.39646359  0.10129441  -0.00012241
1  -5.90966862  -2.01938697  -0.00010807
1  -6.59993113  2.23803298  -0.00010852
1  -7.46803932  -0.07120019  -0.00015140
7  -2.28726039  0.46464041  0.00001469
7  -3.09108139  -1.59740547  -0.00004029
7  2.28726355  0.46464242  0.00008814
7  3.09108344  -1.59739900  -0.00004340
6  3.18186387  -3.02308283  0.00000569
1  3.70647152  -3.38488421  -0.89291611
1  3.70604127  -3.38488697  0.89318088
1  2.17275605  -3.44374371  -0.00025227
6  -3.18185517  -3.02308593  0.00004390
1  -3.70596988  -3.38487818  0.89326112
1  -3.70652215  -3.38490405  -0.89283607
1  -2.17274636  -3.44374513  -0.00027974
27  0.00000790  -1.19017817  0.00010509

-c -h -o -n 0
6-31g(d)
****
-co 0
sdd
****

-co 0
sdd




