%chk=b.chk
%nprocshared=56 
%mem=96gb 
# pbe1pbe em=gd3bj genecp g09default scf=(xqc,maxcycle=64) force  guess=read   nosymm

 Title Card 

0 3
6  -0.00001091  0.77814772  0.00012133
6  -1.27457745  1.35690915  0.00000416
6  -1.24627031  2.74728744  -0.00000375
6  0.00001168  3.39365247  0.00001333
6  1.24625728  2.74729210  0.00004537
6  1.27459799  1.35689899  0.00004526
1  -2.15715247  3.32799637  -0.00004152
1  -0.00000027  4.47788986  -0.00001179
1  2.15715944  3.32799908  0.00005123
6  3.68602498  0.58311033  -0.00002791
6  1.91067635  -0.90308704  0.00008716
6  4.17428037  -0.74430031  -0.00009215
6  4.53459970  1.66506524  -0.00005435
6  5.53968550  -0.99989564  -0.00019621
6  5.92209668  1.40319887  -0.00016981
1  4.16666865  2.68309514  0.00000992
6  6.39864994  0.10309058  -0.00024311
1  5.91101421  -2.01993328  -0.00024498
1  6.60800207  2.24065023  -0.00019538
1  7.47280335  -0.07133554  -0.00032714
6  -3.68607028  0.58315150  -0.00004081
6  -1.91066291  -0.90308777  0.00005369
6  -4.17421595  -0.74430105  -0.00006286
6  -4.53455540  1.66501514  -0.00005204
6  -5.53973171  -0.99990371  -0.00009887
6  -5.92212509  1.40320190  -0.00009851
1  -4.16666779  2.68310084  -0.00002329
6  -6.39861686  0.10306919  -0.00012462
1  -5.91100185  -2.01993560  -0.00010540
1  -6.60799819  2.24063572  -0.00010772
1  -7.47280722  -0.07134779  -0.00015287
7  -2.30044946  0.47446090  0.00001586
7  -3.10757526  -1.60046738  -0.00003503
7  2.30045344  0.47447723  0.00008426
7  3.10756178  -1.60044852  -0.00003107
6  3.18908588  -3.02783551  0.00000848
1  3.70875388  -3.39273335  -0.89382378
1  3.70831202  -3.39274044  0.89409366
1  2.17933353  -3.44475333  -0.00026289
6  -3.18907343  -3.02783274  0.00004669
1  -3.70824074  -3.39273010  0.89417610
1  -3.70880575  -3.39275590  -0.89374390
1  -2.17932464  -3.44475502  -0.00029084
27  0.00001107  -1.21113873  0.00014604

-c -h -o -n 0
6-31g(d)
****
-co 0
sdd
****

-co 0
sdd




