%chk=b.chk
%nprocshared=56 
%mem=96gb 
# pbe1pbe em=gd3bj genecp g09default scf=(xqc,maxcycle=64) force  guess=read   nosymm

 Title Card 

0 3
6  0.00000491  0.82207822  0.00011715
6  -1.29637781  1.35641954  -0.00000015
6  -1.25136560  2.74926942  -0.00000628
6  -0.00000104  3.38190031  0.00001321
6  1.25137265  2.74926506  0.00004178
6  1.29636893  1.35642336  0.00003876
1  -2.16085393  3.33134156  -0.00004024
1  0.00000006  4.46592818  -0.00001151
1  2.16085615  3.33134226  0.00005113
6  3.69552416  0.58415429  -0.00002860
6  1.91939158  -0.90418940  0.00009735
6  4.18166935  -0.74478935  -0.00008828
6  4.54536677  1.66703154  -0.00005616
6  5.54269323  -1.00105669  -0.00019225
6  5.92908854  1.40528136  -0.00017067
1  4.16972038  2.68306868  0.00000832
6  6.40693421  0.10629916  -0.00024365
1  5.91254838  -2.01976343  -0.00024225
1  6.61673976  2.24361569  -0.00019528
1  7.47568758  -0.07123616  -0.00032924
6  -3.69551019  0.58413876  -0.00004209
6  -1.91937984  -0.90419699  0.00007301
6  -4.18167535  -0.74479664  -0.00006322
6  -4.54537525  1.66703971  -0.00005384
6  -5.54267365  -1.00106635  -0.00009718
6  -5.92908653  1.40527074  -0.00009987
1  -4.16972084  2.68306144  -0.00002414
6  -6.40693473  0.10629561  -0.00012553
1  -5.91254130  -2.01977256  -0.00010298
1  -6.61674324  2.24360965  -0.00010724
1  -7.47568126  -0.07124747  -0.00015403
7  -2.31143000  0.48203606  0.00001162
7  -3.12016285  -1.60620445  -0.00004020
7  2.31143398  0.48202709  0.00007503
7  3.12017106  -1.60619929  -0.00003160
6  3.19597841  -3.02863857  0.00000924
1  3.71114019  -3.39978262  -0.89479802
1  3.71068922  -3.39979563  0.89507503
1  2.18468117  -3.44609525  -0.00027097
6  -3.19597207  -3.02864364  0.00004725
1  -3.71061672  -3.39978305  0.89515730
1  -3.71119168  -3.39980683  -0.89471587
1  -2.18467154  -3.44609590  -0.00029928
27  0.00001052  -1.22966008  0.00015439

-c -h -o -n 0
6-31g(d)
****
-co 0
sdd
****

-co 0
sdd




