%chk=a.chk
%nprocshared=56 
%mem=96gb 
# pbe1pbe em=gd3bj genecp g09default scf=(xqc,maxcycle=64) force  guess=read   nosymm

 Title Card 

0 1
6  0.00000089  0.84378176  0.00005181
6  -1.29302545  1.36107396  0.00001305
6  -1.24302616  2.75422792  -0.00000709
6  -0.00000300  3.39695858  0.00001219
6  1.24304161  2.75422696  0.00004012
6  1.29301804  1.36107439  0.00005342
1  -2.15765087  3.33107683  -0.00003871
1  0.00000053  4.47828972  -0.00000968
1  2.15765198  3.33107431  0.00005169
6  3.70167176  0.58313388  -0.00002549
6  1.92846082  -0.90615291  0.00013733
6  4.19201116  -0.74498378  -0.00009241
6  4.55349536  1.66585662  -0.00005756
6  5.55195639  -1.00059908  -0.00019451
6  5.93045268  1.40795549  -0.00017112
1  4.17290484  2.68255898  0.00000767
6  6.41493399  0.10509149  -0.00024263
1  5.91930532  -2.02062880  -0.00024146
1  6.62206822  2.24483348  -0.00019614
1  7.48052918  -0.07115219  -0.00032924
6  -3.70165881  0.58312735  -0.00003735
6  -1.92844010  -0.90616273  0.00010821
6  -4.19201786  -0.74500084  -0.00006493
6  -4.55351117  1.66585453  -0.00005382
6  -5.55193208  -1.00060344  -0.00009722
6  -5.93044080  1.40795017  -0.00010104
1  -4.17290386  2.68255545  -0.00002396
6  -6.41494283  0.10508302  -0.00012501
1  -5.91929939  -2.02064019  -0.00010184
1  -6.62207615  2.24482964  -0.00010824
1  -7.48051955  -0.07116334  -0.00015444
7  -2.31513055  0.47220486  -0.00000143
7  -3.12571785  -1.60818360  -0.00005676
7  2.31513378  0.47219849  0.00006117
7  3.12572249  -1.60818089  -0.00004114
6  3.20148503  -3.03130406  0.00000493
1  3.71508838  -3.40441470  -0.89523779
1  3.71463012  -3.40442701  0.89552154
1  2.18610510  -3.44281745  -0.00027156
6  -3.20147952  -3.03131014  0.00004178
1  -3.71455762  -3.40441570  0.89560546
1  -3.71514239  -3.40444305  -0.89515559
1  -2.18609730  -3.44281738  -0.00030076
27  0.00001127  -1.25153920  0.00016845

-c -h -o -n 0
6-31g(d)
****
-co 0
sdd
****

-co 0
sdd



