%chk=a.chk
%nprocshared=56 
%mem=96gb 
# pbe1pbe em=gd3bj genecp g09default scf=(xqc,maxcycle=64) force  guess=read   nosymm

 Title Card 

0 1
6  0.00000782  0.83585158  0.00008131
6  -1.29486322  1.35958420  0.00000896
6  -1.24910405  2.75442699  -0.00000893
6  -0.00000090  3.39184949  0.00001207
6  1.24911340  2.75441965  0.00003857
6  1.29484694  1.35959362  0.00004807
1  -2.15897679  3.33283312  -0.00003903
1  0.00000044  4.47654209  -0.00000990
1  2.15898076  3.33283295  0.00005123
6  3.69884820  0.58174394  -0.00002765
6  1.92381605  -0.90786379  0.00012637
6  4.18887805  -0.74384012  -0.00009075
6  4.55098731  1.66802031  -0.00005754
6  5.55063256  -1.00093367  -0.00019399
6  5.93374282  1.40580086  -0.00017126
1  4.17365816  2.68221897  0.00000738
6  6.41365090  0.10712781  -0.00024291
1  5.91933527  -2.02032228  -0.00024110
1  6.62198308  2.24455451  -0.00019597
1  7.48217706  -0.07098558  -0.00032955
6  -3.69882124  0.58170979  -0.00003993
6  -1.92380531  -0.90787251  0.00009907
6  -4.18889577  -0.74384457  -0.00006518
6  -4.55100406  1.66804521  -0.00005425
6  -5.55060307  -1.00094491  -0.00009746
6  -5.93373987  1.40578455  -0.00010091
1  -4.17366011  2.68220639  -0.00002423
6  -6.41365500  0.10713130  -0.00012513
1  -5.91932908  -2.02033197  -0.00010172
1  -6.62198896  2.24455033  -0.00010801
1  -7.48217055  -0.07099751  -0.00015449
7  -2.31498363  0.47586033  0.00000456
7  -3.12462556  -1.60569626  -0.00005041
7  2.31498955  0.47584523  0.00006668
7  3.12464205  -1.60569319  -0.00003679
6  3.20065596  -3.03115851  0.00000900
1  3.71507189  -3.40404035  -0.89502991
1  3.71461179  -3.40405288  0.89531074
1  2.18701489  -3.44306619  -0.00027316
6  -3.20065233  -3.03116596  0.00004602
1  -3.71453890  -3.40404076  0.89539384
1  -3.71512538  -3.40406833  -0.89494706
1  -2.18700616  -3.44306625  -0.00030223
27  0.00001067  -1.25047021  0.00015548

-c -h -o -n 0
6-31g(d)
****
-co 0
sdd
****

-co 0
sdd



