%chk=b.chk
%nprocshared=56 
%mem=96gb 
# pbe1pbe em=gd3bj genecp g09default scf=(xqc,maxcycle=64) force  guess=read   nosymm

 Title Card 

0 3
6  -0.00000074  0.81681084  0.00010423
6  -1.28623329  1.36127584  0.00001386
6  -1.24575004  2.75566127  -0.00001275
6  0.00000279  3.40220332  0.00001011
6  1.24575339  2.75566109  0.00003460
6  1.28623449  1.36127668  0.00005286
1  -2.15902541  3.33600690  -0.00003960
1  0.00000101  4.48706258  -0.00000894
1  2.15903133  3.33600586  0.00005006
6  3.69610424  0.58193233  -0.00002956
6  1.92205149  -0.90971646  0.00013209
6  4.18913294  -0.74347840  -0.00009309
6  4.55051740  1.66580496  -0.00005883
6  5.55342395  -0.99994965  -0.00019651
6  5.93343464  1.40541512  -0.00017108
1  4.17663035  2.68259246  0.00000682
6  6.41673868  0.10548422  -0.00024292
1  5.92507805  -2.01957148  -0.00024073
1  6.62301217  2.24370482  -0.00019638
1  7.48759722  -0.07013324  -0.00032901
6  -3.69610473  0.58192923  -0.00004138
6  -1.92203966  -0.90972024  0.00010048
6  -4.18911850  -0.74348386  -0.00006711
6  -4.55051375  1.66579679  -0.00005488
6  -5.55342265  -0.99995773  -0.00009883
6  -5.93343782  1.40540713  -0.00010085
1  -4.17663084  2.68258752  -0.00002427
6  -6.41673208  0.10547677  -0.00012487
1  -5.92506991  -2.01957875  -0.00010150
1  -6.62301588  2.24369696  -0.00010863
1  -7.48759410  -0.07014561  -0.00015430
7  -2.30927375  0.47021633  0.00000945
7  -3.12218246  -1.60501564  -0.00004731
7  2.30927885  0.47021723  0.00007169
7  3.12218804  -1.60500886  -0.00003346
6  3.20169743  -3.03040226  0.00000758
1  3.71753963  -3.40348900  -0.89412375
1  3.71707564  -3.40350117  0.89440698
1  2.18730294  -3.44036345  -0.00027411
6  -3.20168987  -3.03040673  0.00004398
1  -3.71700305  -3.40348905  0.89449070
1  -3.71759504  -3.40351877  -0.89404119
1  -2.18729512  -3.44036487  -0.00030369
27  0.00000768  -1.25685369  0.00012398

-c -h -o -n 0
6-31g(d)
****
-co 0
sdd
****

-co 0
sdd




