%chk=b.chk
%nprocshared=56 
%mem=96gb 
# pbe1pbe em=gd3bj genecp g09default scf=(xqc,maxcycle=64) force  guess=read   nosymm

 Title Card 

0 3
6  0.00000222  0.79574797  0.00011536
6  -1.27983389  1.35966273  0.00002545
6  -1.24525226  2.75553754  -0.00001379
6  0.00000141  3.40483806  0.00000774
6  1.24525690  2.75553686  0.00003349
6  1.27983385  1.35966566  0.00006399
1  -2.15847935  3.33756291  -0.00004182
1  0.00000146  4.49193267  -0.00000842
1  2.15848487  3.33756144  0.00004737
6  3.69192018  0.58160835  -0.00003018
6  1.91940129  -0.90978597  0.00013670
6  4.18762300  -0.74283166  -0.00009587
6  4.54911736  1.66456524  -0.00005991
6  5.55249347  -0.99982267  -0.00019822
6  5.93218975  1.40408867  -0.00017125
1  4.17861496  2.68275375  0.00000651
6  6.41803206  0.10504792  -0.00024289
1  5.92810979  -2.01809570  -0.00024055
1  6.62228173  2.24246162  -0.00019658
1  7.48972239  -0.06924820  -0.00032823
6  -3.69191327  0.58159772  -0.00004212
6  -1.91939369  -0.90978908  0.00010317
6  -4.18761808  -0.74283663  -0.00007004
6  -4.54911881  1.66456419  -0.00005573
6  -5.55248458  -0.99983103  -0.00010043
6  -5.93218890  1.40407826  -0.00010089
1  -4.17861579  2.68274637  -0.00002424
6  -6.41802884  0.10504204  -0.00012447
1  -5.92810226  -2.01810313  -0.00010161
1  -6.62228457  2.24245336  -0.00010903
1  -7.48971815  -0.06926037  -0.00015378
7  -2.30579270  0.46984284  0.00001406
7  -3.11964990  -1.60458340  -0.00004723
7  2.30579740  0.46984205  0.00007652
7  3.11965825  -1.60457888  -0.00003460
6  3.20144785  -3.02927919  0.00000765
1  3.71877369  -3.40163714  -0.89335309
1  3.71830855  -3.40165034  0.89363775
1  2.18740233  -3.43939646  -0.00027454
6  -3.20144033  -3.02928467  0.00004384
1  -3.71823548  -3.40163723  0.89372077
1  -3.71882932  -3.40166662  -0.89326968
1  -2.18739390  -3.43939898  -0.00030443
27  0.00000499  -1.25194355  0.00009313

-c -h -o -n 0
6-31g(d)
****
-co 0
sdd
****

-co 0
sdd




