%chk=b.chk
%nprocshared=56 
%mem=96gb 
# pbe1pbe em=gd3bj genecp g09default scf=(xqc,maxcycle=64) force  guess=read   nosymm

 Title Card 

0 3
6  -0.00000972  0.79402638  0.00012637
6  -1.28012164  1.36064646  0.00002462
6  -1.24477900  2.75349811  -0.00001419
6  0.00000753  3.40478664  0.00000787
6  1.24477426  2.75350489  0.00003307
6  1.28014167  1.36063978  0.00006306
1  -2.15926142  3.33804079  -0.00004206
1  0.00000120  4.49054656  -0.00000855
1  2.15926804  3.33803951  0.00004721
6  3.69241605  0.58225642  -0.00003039
6  1.91909444  -0.90943642  0.00013574
6  4.18546163  -0.74267115  -0.00009548
6  4.54786860  1.66435567  -0.00005985
6  5.55304084  -0.99959408  -0.00019816
6  5.93248001  1.40353521  -0.00017126
1  4.17852326  2.68274430  0.00000654
6  6.41655729  0.10506379  -0.00024286
1  5.92759184  -2.01792810  -0.00024057
1  6.62188018  2.24236107  -0.00019652
1  7.48977395  -0.06928674  -0.00032825
6  -3.69244229  0.58227871  -0.00004247
6  -1.91908135  -0.90943587  0.00010262
6  -4.18541132  -0.74267336  -0.00006988
6  -4.54784340  1.66432104  -0.00005579
6  -5.55307138  -0.99960470  -0.00010051
6  -5.93249292  1.40353048  -0.00010083
1  -4.17852273  2.68274560  -0.00002426
6  -6.41653730  0.10505049  -0.00012445
1  -5.92758059  -2.01793067  -0.00010168
1  -6.62188030  2.24234952  -0.00010897
1  -7.48977472  -0.06929963  -0.00015375
7  -2.30516981  0.46982429  0.00001530
7  -3.11949986  -1.60478639  -0.00004642
7  2.30517244  0.46983938  0.00007776
7  3.11949150  -1.60477475  -0.00003431
6  3.20103801  -3.02882002  0.00000781
1  3.71854591  -3.40127304  -0.89333180
1  3.71808129  -3.40128648  0.89361619
1  2.18726677  -3.43967527  -0.00027453
6  -3.20102558  -3.02882068  0.00004407
1  -3.71800890  -3.40127354  0.89370013
1  -3.71860204  -3.40130248  -0.89324939
1  -2.18725909  -3.43967846  -0.00030437
27  0.00000429  -1.25035595  0.00008309

-c -h -o -n 0
6-31g(d)
****
-co 0
sdd
****

-co 0
sdd




