%chk=a.chk
%nprocshared=56 
%mem=96gb 
# pbe1pbe em=gd3bj genecp g09default scf=(xqc,maxcycle=64) force  guess=read   nosymm

 Title Card 

0 1
6  0.00000949  0.78616561  0.00010178
6  -1.27700492  1.35691352  0.00003395
6  -1.24463317  2.75323174  -0.00000990
6  -0.00000144  3.40260804  0.00000717
6  1.24464119  2.75322533  0.00003750
6  1.27699255  1.35692360  0.00007286
1  -2.15683791  3.33511757  -0.00004399
1  0.00000140  4.48950745  -0.00000914
1  2.15684263  3.33511718  0.00004540
6  3.68963807  0.58147464  -0.00002931
6  1.91823234  -0.90747445  0.00013411
6  4.18597025  -0.74286164  -0.00009806
6  4.54726348  1.66473887  -0.00005975
6  5.54876927  -0.99958667  -0.00019882
6  5.92901000  1.40347919  -0.00017141
1  4.17754757  2.68256588  0.00000696
6  6.41519512  0.10447567  -0.00024280
1  5.92620251  -2.01751588  -0.00024118
1  6.61906144  2.24141037  -0.00019649
1  7.48660543  -0.06910239  -0.00032732
6  -3.68961331  0.58144379  -0.00004165
6  -1.91823152  -0.90747979  0.00010061
6  -4.18599114  -0.74286639  -0.00007160
6  -4.54727857  1.66475874  -0.00005573
6  -5.54873961  -0.99959314  -0.00010130
6  -5.92900277  1.40346373  -0.00010080
1  -4.17754921  2.68255332  -0.00002398
6  -6.41519917  0.10447413  -0.00012426
1  -5.92619720  -2.01752670  -0.00010239
1  -6.61906461  2.24140374  -0.00010903
1  -7.48659884  -0.06911399  -0.00015306
7  -2.30427721  0.47119933  0.00001614
7  -3.11624369  -1.60377740  -0.00004949
7  2.30428550  0.47118805  0.00007952
7  3.11626276  -1.60377673  -0.00003839
6  3.19951337  -3.02856130  0.00000757
1  3.71768670  -3.39903304  -0.89329768
1  3.71722525  -3.39904637  0.89358159
1  2.18614424  -3.44057554  -0.00027289
6  -3.19950848  -3.02856921  0.00004412
1  -3.71715171  -3.39903293  0.89366372
1  -3.71774119  -3.39906059  -0.89321372
1  -2.18613471  -3.44057795  -0.00030269
27  0.00000550  -1.23823011  0.00009377

-c -h -o -n 0
6-31g(d)
****
-co 0
sdd
****

-co 0
sdd



