%chk=b.chk
%nprocshared=56 
%mem=96gb 
# pbe1pbe em=gd3bj genecp g09default scf=(xqc,maxcycle=64) force  guess=read   nosymm

 Title Card 

0 3
6  0.00000370  0.78962985  0.00009150
6  -1.27878239  1.35813550  0.00003621
6  -1.24571038  2.75577021  -0.00001237
6  0.00000145  3.40522178  0.00000457
6  1.24571418  2.75577047  0.00003456
6  1.27878171  1.35813752  0.00007388
1  -2.15853048  3.33950753  -0.00004340
1  0.00000171  4.49370818  -0.00000775
1  2.15853659  3.33950613  0.00004497
6  3.69202686  0.58270102  -0.00003115
6  1.91989339  -0.91048547  0.00013847
6  4.18911006  -0.74333066  -0.00009807
6  4.54991534  1.66316428  -0.00006114
6  5.55355854  -0.99822814  -0.00019894
6  5.93379533  1.40436670  -0.00017176
1  4.18137219  2.68278908  0.00000573
6  6.42029000  0.10405485  -0.00024303
1  5.93171006  -2.01733787  -0.00023970
1  6.62365094  2.24181000  -0.00019678
1  7.49291984  -0.06839257  -0.00032797
6  -3.69202337  0.58269762  -0.00004309
6  -1.91988878  -0.91048748  0.00010500
6  -4.18911151  -0.74333814  -0.00007318
6  -4.54991407  1.66315584  -0.00005669
6  -5.55354624  -0.99823103  -0.00010148
6  -5.93379294  1.40436013  -0.00010135
1  -4.18137275  2.68278257  -0.00002445
6  -6.42028635  0.10404329  -0.00012438
1  -5.93170311  -2.01734659  -0.00010105
1  -6.62365225  2.24179999  -0.00010933
1  -7.49291528  -0.06840439  -0.00015353
7  -2.30562419  0.47062440  0.00001593
7  -3.12039693  -1.60424503  -0.00004859
7  2.30563078  0.47062479  0.00007755
7  3.12040696  -1.60424062  -0.00003547
6  3.20326917  -3.02933712  0.00000876
1  3.72073648  -3.40201814  -0.89299298
1  3.72026717  -3.40203331  0.89328032
1  2.18906582  -3.43868260  -0.00027709
6  -3.20326191  -3.02934264  0.00004471
1  -3.72019357  -3.40201902  0.89336327
1  -3.72079268  -3.40204824  -0.89290875
1  -2.18905690  -3.43868599  -0.00030750
27  0.00000348  -1.25204935  0.00010538

-c -h -o -n 0
6-31g(d)
****
-co 0
sdd
****

-co 0
sdd




