%chk=a.chk
%nprocshared=56 
%mem=96gb 
# pbe1pbe em=gd3bj genecp g09default scf=(xqc,maxcycle=64) force  guess=read   nosymm

 Title Card 

0 1
6  0.00000209  0.80191008  0.00010610
6  -1.28207458  1.36006507  0.00002669
6  -1.24593507  2.75729054  -0.00001462
6  0.00000198  3.40625644  0.00000512
6  1.24593906  2.75728979  0.00003202
6  1.28207511  1.36006808  0.00006418
1  -2.15900823  3.34051585  -0.00004166
1  0.00000162  4.49384194  -0.00000754
1  2.15901464  3.34051413  0.00004646
6  3.69504040  0.58190881  -0.00003200
6  1.92269454  -0.91149472  0.00014025
6  4.19156053  -0.74315090  -0.00009619
6  4.55251239  1.66402129  -0.00006136
6  5.55654874  -0.99882752  -0.00019810
6  5.93631399  1.40454910  -0.00017175
1  4.18235524  2.68248001  0.00000522
6  6.42243879  0.10515101  -0.00024324
1  5.93280917  -2.01745430  -0.00023909
1  6.62631681  2.24277860  -0.00019676
1  7.49469023  -0.06855499  -0.00032869
6  -3.69503442  0.58189926  -0.00004365
6  -1.92268878  -0.91149774  0.00010724
6  -4.19155480  -0.74315592  -0.00007162
6  -4.55251245  1.66401872  -0.00005679
6  -5.55654097  -0.99883513  -0.00010066
6  -5.93631394  1.40453928  -0.00010152
1  -4.18235619  2.68247208  -0.00002474
6  -6.42243439  0.10514385  -0.00012480
1  -5.93280133  -2.01746112  -0.00010033
1  -6.62631888  2.24276935  -0.00010927
1  -7.49468596  -0.06856728  -0.00015409
7  -2.30778656  0.46986143  0.00001472
7  -3.12397906  -1.60493182  -0.00004701
7  2.30779135  0.46986044  0.00007545
7  3.12398703  -1.60492703  -0.00003211
6  3.20516375  -3.03057388  0.00000887
1  3.72164259  -3.40428562  -0.89318339
1  3.72116995  -3.40430119  0.89347185
1  2.19034247  -3.43808047  -0.00027908
6  -3.20515654  -3.03057932  0.00004464
1  -3.72109630  -3.40428685  0.89355512
1  -3.72169924  -3.40431694  -0.89309907
1  -2.19033403  -3.43808364  -0.00030963
27  0.00000482  -1.26176145  0.00010461

-c -h -o -n 0
6-31g(d)
****
-co 0
sdd
****

-co 0
sdd



