%chk=a.chk
%nprocshared=56 
%mem=96gb 
# pbe1pbe em=gd3bj genecp g09default scf=(xqc,maxcycle=64) force  guess=read   nosymm

 Title Card 

0 1
6  0.00000184  0.80762837  0.00009775
6  -1.28403347  1.36065970  0.00002717
6  -1.24649950  2.75830277  -0.00001451
6  0.00000128  3.40655410  0.00000291
6  1.24650549  2.75830387  0.00003138
6  1.28403554  1.36065951  0.00006372
1  -2.15886020  3.34251094  -0.00004177
1  0.00000183  4.49455038  -0.00000718
1  2.15886609  3.34250838  0.00004526
6  3.69786323  0.58200866  -0.00003377
6  1.92523111  -0.91249794  0.00014177
6  4.19474469  -0.74284216  -0.00009652
6  4.55598690  1.66357719  -0.00006288
6  5.56043687  -0.99861121  -0.00019803
6  5.93977244  1.40478194  -0.00017235
1  4.18584192  2.68232372  0.00000393
6  6.42656306  0.10571727  -0.00024368
1  5.93689438  -2.01646395  -0.00023767
1  6.62981696  2.24299277  -0.00019689
1  7.49854924  -0.06787411  -0.00032896
6  -3.69786040  0.58200667  -0.00004525
6  -1.92522296  -0.91250064  0.00010939
6  -4.19473981  -0.74284988  -0.00007305
6  -4.55598668  1.66356723  -0.00005795
6  -5.56042830  -0.99861702  -0.00010109
6  -5.93976981  1.40477512  -0.00010219
1  -4.18584208  2.68231771  -0.00002523
6  -6.42656029  0.10570695  -0.00012526
1  -5.93688662  -2.01647114  -0.00009915
1  -6.62981879  2.24298282  -0.00010948
1  -7.49854394  -0.06788629  -0.00015426
7  -2.31038983  0.46965747  0.00001631
7  -3.12817677  -1.60576331  -0.00004625
7  2.31039353  0.46965969  0.00007539
7  3.12818249  -1.60575796  -0.00002932
6  3.20849563  -3.03120719  0.00000948
1  3.72440128  -3.40642693  -0.89315253
1  3.72392167  -3.40644529  0.89344538
1  2.19303645  -3.43723828  -0.00028370
6  -3.20848790  -3.03121260  0.00004486
1  -3.72384752  -3.40642971  0.89352919
1  -3.72445890  -3.40645968  -0.89306753
1  -2.19302833  -3.43724189  -0.00031493
27  0.00000373  -1.26887870  0.00011727

-c -h -o -n 0
6-31g(d)
****
-co 0
sdd
****

-co 0
sdd



