%chk=b.chk
%nprocshared=56 
%mem=96gb 
# pbe1pbe em=gd3bj genecp g09default scf=(xqc,maxcycle=64) force  guess=read   nosymm

 Title Card 

0 3
6  0.00000148  0.81159326  0.00009660
6  -1.28574783  1.36097550  0.00002583
6  -1.24649977  2.75916138  -0.00001462
6  0.00000333  3.40733620  0.00000109
6  1.24650251  2.75915958  0.00003043
6  1.28574981  1.36097981  0.00006146
1  -2.15868123  3.34444071  -0.00004184
1  0.00000183  4.49513520  -0.00000717
1  2.15868875  3.34443882  0.00004402
6  3.70053418  0.58182088  -0.00003578
6  1.92825247  -0.91369474  0.00014216
6  4.19836941  -0.74299379  -0.00009666
6  4.55923354  1.66369054  -0.00006455
6  5.56409879  -0.99748593  -0.00019811
6  5.94330502  1.40482790  -0.00017305
1  4.18959919  2.68197777  0.00000251
6  6.43014826  0.10591440  -0.00024420
1  5.94132339  -2.01575817  -0.00023621
1  6.63321130  2.24318638  -0.00019700
1  7.50274570  -0.06713940  -0.00032915
6  -3.70052691  0.58180551  -0.00004706
6  -1.92824826  -0.91369790  0.00011015
6  -4.19835988  -0.74299561  -0.00007421
6  -4.55923323  1.66369287  -0.00005925
6  -5.56409417  -0.99749657  -0.00010171
6  -5.94330687  1.40481350  -0.00010291
1  -4.18960056  2.68196760  -0.00002576
6  -6.43014182  0.10591081  -0.00012586
1  -5.94131478  -2.01576355  -0.00009798
1  -6.63321257  2.24317685  -0.00010969
1  -7.50274173  -0.06715224  -0.00015436
7  -2.31191805  0.46935863  0.00001915
7  -3.13141454  -1.60558775  -0.00004436
7  2.31192204  0.46935645  0.00007661
7  3.13142076  -1.60558301  -0.00002544
6  3.21194885  -3.03217906  0.00001045
1  3.72729357  -3.40827262  -0.89301701
1  3.72680631  -3.40829387  0.89331409
1  2.19584944  -3.43635808  -0.00028865
6  -3.21194153  -3.03218504  0.00004550
1  -3.72673149  -3.40827703  0.89339834
1  -3.72735207  -3.40830677  -0.89293116
1  -2.19584127  -3.43636217  -0.00032061
27  0.00000409  -1.27505988  0.00012573

-c -h -o -n 0
6-31g(d)
****
-co 0
sdd
****

-co 0
sdd




