%chk=a.chk
%nprocshared=56 
%mem=96gb 
# pbe1pbe em=gd3bj genecp g09default scf=(xqc,maxcycle=64) force  guess=read   nosymm

 Title Card 

0 1
6  0.00000193  0.81336121  0.00009559
6  -1.28686947  1.36049582  0.00002660
6  -1.24701105  2.75895896  -0.00001328
6  0.00000182  3.40622837  -0.00000144
6  1.24701697  2.75895925  0.00003034
6  1.28687217  1.36049650  0.00006067
1  -2.15743966  3.34619288  -0.00004307
1  0.00000220  4.49405066  -0.00000812
1  2.15744596  3.34619022  0.00004074
6  3.70410261  0.58222542  -0.00003872
6  1.93114159  -0.91428532  0.00014081
6  4.20236116  -0.74253696  -0.00009744
6  4.56371802  1.66300694  -0.00006757
6  5.56889129  -0.99676972  -0.00019862
6  5.94766879  1.40491240  -0.00017451
1  4.19542357  2.68195577  0.00000023
6  6.43535782  0.10645840  -0.00024519
1  5.94767504  -2.01379800  -0.00023389
1  6.63745696  2.24299465  -0.00019715
1  7.50790872  -0.06580703  -0.00032894
6  -3.70409864  0.58222214  -0.00004993
6  -1.93113684  -0.91428807  0.00010973
6  -4.20235629  -0.74254412  -0.00007668
6  -4.56371742  1.66299801  -0.00006175
6  -5.56888454  -0.99677593  -0.00010341
6  -5.94766631  1.40490586  -0.00010428
1  -4.19542359  2.68194895  -0.00002660
6  -6.43535455  0.10644669  -0.00012696
1  -5.94766701  -2.01380519  -0.00009638
1  -6.63745672  2.24298317  -0.00011003
1  -7.50790312  -0.06581936  -0.00015408
7  -2.31472209  0.46907883  0.00002606
7  -3.13590631  -1.60566512  -0.00004141
7  2.31472564  0.46908063  0.00008109
7  3.13591233  -1.60565994  -0.00002014
6  3.21657823  -3.03270916  0.00001197
1  3.73186295  -3.40981258  -0.89284826
1  3.73136375  -3.40983940  0.89315262
1  2.20026859  -3.43577942  -0.00029679
6  -3.21657084  -3.03271477  0.00004666
1  -3.73128792  -3.40982033  0.89323793
1  -3.73192278  -3.40984813  -0.89276131
1  -2.20026030  -3.43578428  -0.00033000
27  0.00000274  -1.27801154  0.00013458

-c -h -o -n 0
6-31g(d)
****
-co 0
sdd
****

-co 0
sdd



