%chk=a.chk
%nprocshared=56 
%mem=96gb 
# pbe1pbe em=gd3bj genecp g09default scf=(xqc,maxcycle=64) force  guess=read   nosymm

 Title Card 

0 1
6  -0.00000047  0.80510651  0.00009205
6  -1.28616518  1.35833425  0.00003462
6  -1.24662558  2.75567450  -0.00001044
6  0.00000597  3.40160082  -0.00000208
6  1.24662319  2.75567258  0.00003147
6  1.28617324  1.35833923  0.00006714
1  -2.15587652  3.34585907  -0.00004590
1  0.00000208  4.48958833  -0.00001113
1  2.15588468  3.34585864  0.00003553
6  3.70525089  0.58265942  -0.00003968
6  1.93208138  -0.91352452  0.00013990
6  4.20441478  -0.74180884  -0.00009872
6  4.56648893  1.66302910  -0.00007105
6  5.57109455  -0.99559550  -0.00019980
6  5.95013761  1.40469978  -0.00017691
1  4.20081725  2.68252005  -0.00000218
6  6.43803238  0.10650226  -0.00024619
1  5.95283186  -2.01193978  -0.00023167
1  6.63980752  2.24252021  -0.00019738
1  7.51102246  -0.06441978  -0.00032788
6  -3.70524297  0.58263059  -0.00005112
6  -1.93207784  -0.91352605  0.00010995
6  -4.20439429  -0.74180145  -0.00007954
6  -4.56648638  1.66304342  -0.00006489
6  -5.57109781  -0.99561624  -0.00010641
6  -5.95014226  1.40466929  -0.00010640
1  -4.20081907  2.68250673  -0.00002742
6  -6.43802058  0.10651223  -0.00012832
1  -5.95282219  -2.01194371  -0.00009542
1  -6.63980776  2.24251275  -0.00011046
1  -7.51102117  -0.06443369  -0.00015305
7  -2.31592985  0.46956388  0.00003454
7  -3.13700902  -1.60570839  -0.00003990
7  2.31593129  0.46956233  0.00008747
7  3.13700935  -1.60570425  -0.00001789
6  3.22014615  -3.03137527  0.00001289
1  3.73623979  -3.40841310  -0.89258335
1  3.73572887  -3.40844745  0.89289617
1  2.20435997  -3.43680174  -0.00030491
6  -3.22013614  -3.03138181  0.00004765
1  -3.73565185  -3.40842586  0.89298293
1  -3.73630066  -3.40844834  -0.89249547
1  -2.20435220  -3.43680713  -0.00033949
27  0.00000096  -1.26876569  0.00013241

-c -h -o -n 0
6-31g(d)
****
-co 0
sdd
****

-co 0
sdd



