%chk=b.chk
%nprocshared=56 
%mem=96gb 
# pbe1pbe em=gd3bj genecp g09default scf=(xqc,maxcycle=64) force  guess=read   nosymm

 Title Card 

0 3
6  0.00000032  0.79832316  0.00008479
6  -1.28728431  1.35443284  0.00004286
6  -1.24726999  2.75095462  -0.00000520
6  0.00000449  3.39474116  -0.00000374
6  1.24726971  2.75095387  0.00003250
6  1.28729420  1.35443556  0.00007162
1  -2.15251793  3.34538364  -0.00004988
1  0.00000248  4.48126078  -0.00001817
1  2.15252354  3.34538366  0.00002543
6  3.71229863  0.58390650  -0.00004268
6  1.93807844  -0.91355616  0.00014062
6  4.21181840  -0.74087213  -0.00009965
6  4.57515716  1.66282221  -0.00007897
6  5.57995095  -0.99400362  -0.00020158
6  5.95900365  1.40513819  -0.00018263
1  4.21419138  2.68401203  -0.00000867
6  6.44737484  0.10791269  -0.00024896
1  5.96615880  -2.00798737  -0.00022584
1  6.64862158  2.24267798  -0.00019837
1  7.52062614  -0.06161881  -0.00032612
6  -3.71229113  0.58388210  -0.00005386
6  -1.93807638  -0.91355713  0.00011299
6  -4.21179633  -0.74086657  -0.00008420
6  -4.57515399  1.66283259  -0.00007169
6  -5.57995780  -0.99402593  -0.00011207
6  -5.95900631  1.40511041  -0.00011191
1  -4.21419182  2.68400113  -0.00002982
6  -6.44736365  0.10791897  -0.00013229
1  -5.96614906  -2.00799245  -0.00009262
1  -6.64861901  2.24266940  -0.00011174
1  -7.52062467  -0.06163217  -0.00015131
7  -2.32092620  0.46973386  0.00005122
7  -3.14497570  -1.60500246  -0.00003564
7  2.32092514  0.46973538  0.00009841
7  3.14497485  -1.60499832  -0.00000941
6  3.23063218  -3.03120422  0.00001653
1  3.74795921  -3.40756522  -0.89219108
1  3.74741428  -3.40761640  0.89252387
1  2.21607422  -3.43835319  -0.00032670
6  -3.23062141  -3.03120959  0.00005116
1  -3.74733395  -3.40758945  0.89261421
1  -3.74802311  -3.40760139  -0.89210038
1  -2.21606614  -3.43835956  -0.00036465
27  -0.00000048  -1.25853326  0.00014320

-c -h -o -n 0
6-31g(d)
****
-co 0
sdd
****

-co 0
sdd




