%chk=b.chk
%nprocshared=56 
%mem=96gb 
# pbe1pbe em=gd3bj genecp g09default scf=(xqc,maxcycle=64) force  guess=read   nosymm

 Title Card 

0 3
6  0.00000117  0.61278493  0.00006182
6  -1.17917713  1.35874074  0.00004695
6  -1.22630481  2.75302254  0.00000020
6  -0.00000009  3.42889939  0.00001180
6  1.22630814  2.75302278  0.00005163
6  1.17917932  1.35874295  0.00008921
1  -2.15193214  3.32618201  -0.00004672
1  0.00000126  4.50813191  -0.00000997
1  2.15193459  3.32618298  0.00005040
6  3.64897683  0.57011592  -0.00001681
6  1.88428008  -0.89085693  0.00009758
6  4.16486518  -0.73686624  -0.00010978
6  4.52275592  1.66503205  -0.00004790
6  5.52982774  -1.00126876  -0.00020918
6  5.88742757  1.40151325  -0.00016836
1  4.15862644  2.68448111  0.00001463
6  6.38871926  0.09143678  -0.00023925
1  5.90731081  -2.01805010  -0.00025170
1  6.58757073  2.23383157  -0.00019679
1  7.46214670  -0.07149414  -0.00032105
6  -3.64897377  0.57011188  -0.00002418
6  -1.88427730  -0.89085694  0.00002426
6  -4.16485780  -0.73687317  -0.00006711
6  -4.52275430  1.66502764  -0.00004704
6  -5.52982126  -1.00127628  -0.00010738
6  -5.88742510  1.40150410  -0.00009606
1  -4.15862640  2.68447590  -0.00002032
6  -6.38871556  0.09142734  -0.00011905
1  -5.90730446  -2.01805832  -0.00011166
1  -6.58756995  2.23382184  -0.00010995
1  -7.46214182  -0.07150505  -0.00014919
7  -2.26814708  0.42438556  0.00000479
7  -3.05865439  -1.58237538  -0.00003924
7  2.26815164  0.42438441  0.00009457
7  3.05866006  -1.58237353  -0.00005993
6  3.16973178  -3.02360621  -0.00000012
1  3.70376045  -3.37289178  -0.89149235
1  3.70334551  -3.37288752  0.89175135
1  2.16330010  -3.44025611  -0.00023620
6  -3.16972320  -3.02361066  0.00003888
1  -3.70327402  -3.37288194  0.89182898
1  -3.70381027  -3.37290837  -0.89141416
1  -2.16329024  -3.44025832  -0.00026343
27  0.00000586  -1.13202682  0.00014788

-c -h -o -n 0
6-31g(d)
****
-co 0
sdd
****

-co 0
sdd




