%chk=b.chk
%nprocshared=56 
%mem=96gb 
# pbe1pbe em=gd3bj genecp g09default scf=(xqc,maxcycle=64) force  guess=read   nosymm

 Title Card 

0 3
6  0.00000106  0.59958921  0.00006232
6  -1.17673491  1.36392896  0.00004873
6  -1.22917837  2.75077879  -0.00000029
6  0.00000039  3.42988689  0.00001179
6  1.22918052  2.75077863  0.00005131
6  1.17673738  1.36393234  0.00008935
1  -2.15304899  3.32776128  -0.00004699
1  0.00000128  4.50692124  -0.00000977
1  2.15305194  3.32776244  0.00005025
6  3.64606329  0.57058566  -0.00001611
6  1.88081965  -0.88965146  0.00009932
6  4.16856605  -0.73759421  -0.00011082
6  4.52523851  1.66540094  -0.00004724
6  5.52918245  -1.00030387  -0.00020928
6  5.88658226  1.40246168  -0.00016881
1  4.15850460  2.68471399  0.00001461
6  6.38958602  0.09049846  -0.00023894
1  5.90740625  -2.01837229  -0.00025156
1  6.58791667  2.23381421  -0.00019687
1  7.46198162  -0.07141549  -0.00032107
6  -3.64606313  0.57058277  -0.00002169
6  -1.88081546  -0.88965102  0.00002284
6  -4.16855256  -0.73759813  -0.00006844
6  -4.52523175  1.66539441  -0.00004709
6  -5.52918197  -1.00031258  -0.00010805
6  -5.88658525  1.40245276  -0.00009637
1  -4.15850470  2.68470929  -0.00002020
6  -6.38957687  0.09048884  -0.00011858
1  -5.90739944  -2.01837951  -0.00011148
1  -6.58791473  2.23380340  -0.00011003
1  -7.46197900  -0.07142669  -0.00014916
7  -2.26827185  0.41927786  0.00000298
7  -3.05665118  -1.57935017  -0.00003962
7  2.26827559  0.41927417  0.00009527
7  3.05665362  -1.57934337  -0.00006354
6  3.17012624  -3.02468794  0.00000076
1  3.70386585  -3.37308419  -0.89147589
1  3.70345058  -3.37308056  0.89173524
1  2.16358098  -3.44007040  -0.00023626
6  -3.17011610  -3.02469016  0.00003930
1  -3.70337937  -3.37307503  0.89181331
1  -3.70391587  -3.37310110  -0.89139804
1  -2.16357163  -3.44007267  -0.00026360
27  0.00000635  -1.12546036  0.00014843

-c -h -o -n 0
6-31g(d)
****
-co 0
sdd
****

-co 0
sdd




