%chk=b.chk
%nprocshared=56 
%mem=96gb 
# pbe1pbe em=gd3bj genecp g09default scf=(xqc,maxcycle=64) force  guess=read   nosymm

 Title Card 

0 3
6  0.00000129  0.65763751  0.00010842
6  -1.21512016  1.35839322  0.00003576
6  -1.23700438  2.74874240  -0.00000438
6  0.00000085  3.41479323  0.00001361
6  1.23700615  2.74874302  0.00004760
6  1.21512341  1.35839458  0.00007691
1  -2.15508062  3.32632151  -0.00004529
1  0.00000106  4.49837940  -0.00001084
1  2.15508304  3.32632267  0.00005087
6  3.65550369  0.57581409  -0.00002002
6  1.88404065  -0.89427764  0.00008451
6  4.16633370  -0.73918906  -0.00010122
6  4.52573700  1.66516170  -0.00005017
6  5.52889367  -1.00152171  -0.00020550
6  5.89595466  1.40108101  -0.00016886
1  4.15917930  2.68420412  0.00001369
6  6.39066118  0.09542101  -0.00024091
1  5.90696500  -2.01852545  -0.00025036
1  6.59086935  2.23522771  -0.00019597
1  7.46253391  -0.07106892  -0.00032246
6  -3.65550180  0.57581095  -0.00002847
6  -1.88403484  -0.89427734  0.00002493
6  -4.16632469  -0.73919396  -0.00006464
6  -4.52573320  1.66515486  -0.00004936
6  -5.52888962  -1.00152978  -0.00010482
6  -5.89595462  1.40107262  -0.00009658
1  -4.15917920  2.68419938  -0.00002103
6  -6.39065433  0.09541175  -0.00012060
1  -5.90695797  -2.01853315  -0.00011035
1  -6.59086787  2.23521740  -0.00010894
1  -7.46253053  -0.07107992  -0.00015022
7  -2.27590093  0.44087648  0.00000911
7  -3.07071816  -1.58677691  -0.00003245
7  2.27590388  0.44087538  0.00009315
7  3.07072226  -1.58677050  -0.00004766
6  3.17438102  -3.02360086  0.00000373
1  3.70402064  -3.37735957  -0.89239717
1  3.70360133  -3.37735982  0.89265708
1  2.16678967  -3.44208419  -0.00024288
6  -3.17437100  -3.02360326  0.00004196
1  -3.70353004  -3.37735229  0.89273583
1  -3.70407074  -3.37737732  -0.89231852
1  -2.16677982  -3.44208629  -0.00027010
27  0.00000380  -1.15561101  0.00012259

-c -h -o -n 0
6-31g(d)
****
-co 0
sdd
****

-co 0
sdd




