%chk=b.chk
%nprocshared=56 
%mem=96gb 
# pbe1pbe em=gd3bj genecp g09default scf=(xqc,maxcycle=64) force  guess=read   nosymm

 Title Card 

0 3
6  0.00000169  0.71520935  0.00012539
6  -1.25322512  1.35477544  0.00003458
6  -1.24742680  2.74394439  -0.00000772
6  -0.00000010  3.39935951  0.00001442
6  1.24743003  2.74394395  0.00004437
6  1.25322622  1.35477735  0.00007521
1  -2.15925524  3.32714853  -0.00004475
1  0.00000092  4.48576995  -0.00001124
1  2.15925703  3.32714968  0.00005030
6  3.66706732  0.58135304  -0.00002140
6  1.88762415  -0.89876723  0.00008126
6  4.16603141  -0.73946722  -0.00009206
6  4.52769913  1.66475329  -0.00005285
6  5.52787842  -1.00221502  -0.00020115
6  5.90506003  1.40006299  -0.00016954
1  4.16035511  2.68397426  0.00001269
6  6.39322761  0.10045233  -0.00024242
1  5.90675301  -2.01898019  -0.00024872
1  6.59550057  2.23730121  -0.00019523
1  7.46376304  -0.07070949  -0.00032419
6  -3.66706466  0.58134827  -0.00003221
6  -1.88761805  -0.89876880  0.00003856
6  -4.16602351  -0.73947376  -0.00006202
6  -4.52769628  1.66474813  -0.00005169
6  -5.52787264  -1.00222274  -0.00010201
6  -5.90505881  1.40005414  -0.00009746
1  -4.16035518  2.68396857  -0.00002178
6  -6.39322304  0.10044357  -0.00012208
1  -5.90674566  -2.01898815  -0.00010882
1  -6.59549951  2.23729153  -0.00010794
1  -7.46375862  -0.07072023  -0.00015135
7  -2.28316835  0.46118654  0.00001088
7  -3.08282777  -1.59413618  -0.00003223
7  2.28317320  0.46118434  0.00008709
7  3.08283371  -1.59413319  -0.00004019
6  3.17925052  -3.02231177  0.00000487
1  3.70456367  -3.38258315  -0.89346474
1  3.70414033  -3.38258951  0.89372849
1  2.17109626  -3.44416462  -0.00024919
6  -3.17924113  -3.02231560  0.00004304
1  -3.70406877  -3.38257979  0.89380770
1  -3.70461381  -3.38260219  -0.89338519
1  -2.17108598  -3.44416657  -0.00027637
27  0.00000164  -1.18422787  0.00009767

-c -h -o -n 0
6-31g(d)
****
-co 0
sdd
****

-co 0
sdd




