%chk=b.chk
%nprocshared=56 
%mem=96gb 
# pbe1pbe em=gd3bj genecp g09default scf=(xqc,maxcycle=64) force  guess=read   nosymm

 Title Card 

0 3
6  0.00000132  0.77292917  0.00011987
6  -1.29035530  1.35173667  0.00004006
6  -1.25697525  2.74016410  -0.00000914
6  -0.00000037  3.38245970  0.00001437
6  1.25697876  2.74016277  0.00004278
6  1.29035562  1.35173877  0.00007967
1  -2.16411659  3.32870032  -0.00004492
1  0.00000073  4.47152072  -0.00001131
1  2.16411814  3.32870156  0.00004895
6  3.67830120  0.58686273  -0.00002101
6  1.89285405  -0.90266097  0.00008980
6  4.16625081  -0.74106191  -0.00008464
6  4.53085662  1.66482234  -0.00005523
6  5.52744302  -1.00223198  -0.00019676
6  5.91489254  1.40006012  -0.00017064
1  4.16192860  2.68372402  0.00001166
6  6.39600223  0.10477362  -0.00024333
1  5.90658694  -2.01942766  -0.00024689
1  6.60083070  2.23941593  -0.00019469
1  7.46560774  -0.07035433  -0.00032602
6  -3.67829881  0.58685807  -0.00003400
6  -1.89284744  -0.90266324  0.00006362
6  -4.16624179  -0.74106865  -0.00006111
6  -4.53085313  1.66481672  -0.00005385
6  -5.52743803  -1.00223958  -0.00009958
6  -5.91489192  1.40005135  -0.00009879
1  -4.16192866  2.68371808  -0.00002245
6  -6.39599756  0.10476484  -0.00012304
1  -5.90657910  -2.01943557  -0.00010715
1  -6.60082972  2.23940654  -0.00010711
1  -7.46560322  -0.07036493  -0.00015244
7  -2.29246256  0.48050647  0.00001080
7  -3.09649816  -1.60134283  -0.00003880
7  2.29246809  0.48050369  0.00007942
7  3.09650416  -1.60133980  -0.00003992
6  3.18462393  -3.02125137  0.00000648
1  3.70533492  -3.38835144  -0.89451982
1  3.70490704  -3.38836431  0.89478796
1  2.17598884  -3.44639217  -0.00025504
6  -3.18461447  -3.02125511  0.00004454
1  -3.70483536  -3.38835240  0.89486798
1  -3.70538526  -3.38837200  -0.89443951
1  -2.17597830  -3.44639403  -0.00028224
27  0.00000089  -1.21139692  0.00007141

-c -h -o -n 0
6-31g(d)
****
-co 0
sdd
****

-co 0
sdd




