%chk=b.chk
%nprocshared=56 
%mem=96gb 
# pbe1pbe em=gd3bj genecp g09default scf=(xqc,maxcycle=64) force  guess=read   nosymm

 Title Card 

0 3
6  0.00000009  0.82560966  0.00010583
6  -1.33079113  1.34908890  0.00004663
6  -1.26672952  2.73675715  -0.00000981
6  0.00000040  3.36463184  0.00001418
6  1.26673156  2.73675560  0.00004206
6  1.33079266  1.34909055  0.00008536
1  -2.16862757  3.32979306  -0.00004506
1  0.00000048  4.45799574  -0.00001136
1  2.16862925  3.32979454  0.00004761
6  3.68806531  0.59293523  -0.00002010
6  1.89679664  -0.90631470  0.00010136
6  4.16615980  -0.74414023  -0.00007761
6  4.53389686  1.66523611  -0.00005756
6  5.52671637  -1.00219344  -0.00019256
6  5.92533874  1.40009509  -0.00017185
1  4.16334533  2.68328904  0.00001072
6  6.39837704  0.10916849  -0.00024409
1  5.90631667  -2.01988805  -0.00024519
1  6.60564071  2.24122673  -0.00019417
1  7.46732141  -0.06996153  -0.00032775
6  -3.68806437  0.59293264  -0.00003530
6  -1.89678837  -0.90631639  0.00009186
6  -4.16614740  -0.74414541  -0.00006068
6  -4.53389092  1.66522740  -0.00005596
6  -5.52671498  -1.00220121  -0.00009721
6  -5.92534051  1.40008707  -0.00010017
1  -4.16334522  2.68328368  -0.00002305
6  -6.39836957  0.10915926  -0.00012383
1  -5.90630809  -2.01989556  -0.00010560
1  -6.60563936  2.24121712  -0.00010632
1  -7.46731793  -0.06997214  -0.00015346
7  -2.30094773  0.50155270  0.00001058
7  -3.11207422  -1.60881752  -0.00004710
7  2.30095247  0.50155057  0.00007156
7  3.11207876  -1.60881050  -0.00004130
6  3.18991298  -3.01998437  0.00000870
1  3.70596426  -3.39397860  -0.89556108
1  3.70553211  -3.39399769  0.89583296
1  2.18071705  -3.44880818  -0.00026036
6  -3.18990247  -3.01998618  0.00004651
1  -3.70546054  -3.39398362  0.89591410
1  -3.70601493  -3.39400062  -0.89548024
1  -2.18070634  -3.44881001  -0.00028757
27  0.00000008  -1.23619508  0.00004627

-c -h -o -n 0
6-31g(d)
****
-co 0
sdd
****

-co 0
sdd




